321

Pd     10.275000000000000     18.055000000000000     20.000000000000000
Pd     10.275000000000000     20.000000000000000     18.055000000000000
Pd     10.275000000000000     20.000000000000000     21.945000000000000
Pd     10.275000000000000     21.945000000000000     20.000000000000000
Pd     12.220000000000001     14.164999999999999     18.055000000000000
Pd     14.164999999999999     12.220000000000001     18.055000000000000
Pd     14.164999999999999     14.164999999999999     16.109999999999999
Pd     12.220000000000001     14.164999999999999     21.945000000000000
Pd     14.164999999999999     12.220000000000001     21.945000000000000
Pd     14.164999999999999     14.164999999999999     20.000000000000000
Pd     14.164999999999999     14.164999999999999     23.890000000000001
Pd     12.220000000000001     18.055000000000000     14.164999999999999
Pd     14.164999999999999     16.109999999999999     14.164999999999999
Pd     14.164999999999999     18.055000000000000     12.220000000000001
Pd     12.220000000000001     16.109999999999999     16.109999999999999
Pd     12.220000000000001     18.055000000000000     18.055000000000000
Pd     14.164999999999999     16.109999999999999     18.055000000000000
Pd     14.164999999999999     18.055000000000000     16.109999999999999
Pd     12.220000000000001     16.109999999999999     20.000000000000000
Pd     12.220000000000001     18.055000000000000     21.945000000000000
Pd     14.164999999999999     16.109999999999999     21.945000000000000
Pd     14.164999999999999     18.055000000000000     20.000000000000000
Pd     12.220000000000001     16.109999999999999     23.890000000000001
Pd     12.220000000000001     18.055000000000000     25.835000000000001
Pd     14.164999999999999     16.109999999999999     25.835000000000001
Pd     14.164999999999999     18.055000000000000     23.890000000000001
Pd     14.164999999999999     18.055000000000000     27.780000000000001
Pd     12.220000000000001     21.945000000000000     14.164999999999999
Pd     14.164999999999999     20.000000000000000     14.164999999999999
Pd     14.164999999999999     21.945000000000000     12.220000000000001
Pd     12.220000000000001     20.000000000000000     16.109999999999999
Pd     12.220000000000001     21.945000000000000     18.055000000000000
Pd     14.164999999999999     20.000000000000000     18.055000000000000
Pd     14.164999999999999     21.945000000000000     16.109999999999999
Pd     12.220000000000001     20.000000000000000     20.000000000000000
Pd     12.220000000000001     21.945000000000000     21.945000000000000
Pd     14.164999999999999     20.000000000000000     21.945000000000000
Pd     14.164999999999999     21.945000000000000     20.000000000000000
Pd     12.220000000000001     20.000000000000000     23.890000000000001
Pd     12.220000000000001     21.945000000000000     25.835000000000001
Pd     14.164999999999999     20.000000000000000     25.835000000000001
Pd     14.164999999999999     21.945000000000000     23.890000000000001
Pd     14.164999999999999     21.945000000000000     27.780000000000001
Pd     14.164999999999999     23.890000000000001     14.164999999999999
Pd     12.220000000000001     23.890000000000001     16.109999999999999
Pd     12.220000000000001     25.835000000000001     18.055000000000000
Pd     14.164999999999999     23.890000000000001     18.055000000000000
Pd     14.164999999999999     25.835000000000001     16.109999999999999
Pd     12.220000000000001     23.890000000000001     20.000000000000000
Pd     12.220000000000001     25.835000000000001     21.945000000000000
Pd     14.164999999999999     23.890000000000001     21.945000000000000
Pd     14.164999999999999     25.835000000000001     20.000000000000000
Pd     12.220000000000001     23.890000000000001     23.890000000000001
Pd     14.164999999999999     23.890000000000001     25.835000000000001
Pd     14.164999999999999     25.835000000000001     23.890000000000001
Pd     14.164999999999999     27.780000000000001     18.055000000000000
Pd     14.164999999999999     27.780000000000001     21.945000000000000
Pd     18.055000000000000     10.275000000000000     20.000000000000000
Pd     16.109999999999999     14.164999999999999     14.164999999999999
Pd     18.055000000000000     12.220000000000001     14.164999999999999
Pd     18.055000000000000     14.164999999999999     12.220000000000001
Pd     16.109999999999999     12.220000000000001     16.109999999999999
Pd     16.109999999999999     14.164999999999999     18.055000000000000
Pd     18.055000000000000     12.220000000000001     18.055000000000000
Pd     18.055000000000000     14.164999999999999     16.109999999999999
Pd     16.109999999999999     12.220000000000001     20.000000000000000
Pd     16.109999999999999     14.164999999999999     21.945000000000000
Pd     18.055000000000000     12.220000000000001     21.945000000000000
Pd     18.055000000000000     14.164999999999999     20.000000000000000
Pd     16.109999999999999     12.220000000000001     23.890000000000001
Pd     16.109999999999999     14.164999999999999     25.835000000000001
Pd     18.055000000000000     12.220000000000001     25.835000000000001
Pd     18.055000000000000     14.164999999999999     23.890000000000001
Pd     18.055000000000000     14.164999999999999     27.780000000000001
Pd     16.109999999999999     16.109999999999999     12.220000000000001
Pd     16.109999999999999     18.055000000000000     14.164999999999999
Pd     18.055000000000000     16.109999999999999     14.164999999999999
Pd     18.055000000000000     18.055000000000000     12.220000000000001
Pd     16.109999999999999     16.109999999999999     16.109999999999999
Pd     16.109999999999999     18.055000000000000     18.055000000000000
Pd     18.055000000000000     16.109999999999999     18.055000000000000
Pd     18.055000000000000     18.055000000000000     16.109999999999999
Pd     16.109999999999999     16.109999999999999     20.000000000000000
Pd     16.109999999999999     18.055000000000000     21.945000000000000
Pd     18.055000000000000     16.109999999999999     21.945000000000000
Pd     18.055000000000000     18.055000000000000     20.000000000000000
Pd     16.109999999999999     16.109999999999999     23.890000000000001
Pd     16.109999999999999     18.055000000000000     25.835000000000001
Pd     18.055000000000000     16.109999999999999     25.835000000000001
Pd     18.055000000000000     18.055000000000000     23.890000000000001
Pd     16.109999999999999     16.109999999999999     27.780000000000001
Pd     18.055000000000000     18.055000000000000     27.780000000000001
Pd     18.055000000000000     20.000000000000000     10.275000000000000
Pd     16.109999999999999     20.000000000000000     12.220000000000001
Pd     16.109999999999999     21.945000000000000     14.164999999999999
Pd     18.055000000000000     20.000000000000000     14.164999999999999
Pd     18.055000000000000     21.945000000000000     12.220000000000001
Pd     16.109999999999999     20.000000000000000     16.109999999999999
Pd     16.109999999999999     21.945000000000000     18.055000000000000
Pd     18.055000000000000     20.000000000000000     18.055000000000000
Pd     18.055000000000000     21.945000000000000     16.109999999999999
Pd     16.109999999999999     20.000000000000000     20.000000000000000
Pd     16.109999999999999     21.945000000000000     21.945000000000000
Pd     18.055000000000000     20.000000000000000     21.945000000000000
Pd     18.055000000000000     21.945000000000000     20.000000000000000
Pd     16.109999999999999     20.000000000000000     23.890000000000001
Pd     16.109999999999999     21.945000000000000     25.835000000000001
Pd     18.055000000000000     20.000000000000000     25.835000000000001
Pd     18.055000000000000     21.945000000000000     23.890000000000001
Pd     16.109999999999999     20.000000000000000     27.780000000000001
Pd     18.055000000000000     20.000000000000000     29.725000000000001
Pd     18.055000000000000     21.945000000000000     27.780000000000001
Pd     16.109999999999999     23.890000000000001     12.220000000000001
Pd     16.109999999999999     25.835000000000001     14.164999999999999
Pd     18.055000000000000     23.890000000000001     14.164999999999999
Pd     18.055000000000000     25.835000000000001     12.220000000000001
Pd     16.109999999999999     23.890000000000001     16.109999999999999
Pd     16.109999999999999     25.835000000000001     18.055000000000000
Pd     18.055000000000000     23.890000000000001     18.055000000000000
Pd     18.055000000000000     25.835000000000001     16.109999999999999
Pd     16.109999999999999     23.890000000000001     20.000000000000000
Pd     16.109999999999999     25.835000000000001     21.945000000000000
Pd     18.055000000000000     23.890000000000001     21.945000000000000
Pd     18.055000000000000     25.835000000000001     20.000000000000000
Pd     16.109999999999999     23.890000000000001     23.890000000000001
Pd     16.109999999999999     25.835000000000001     25.835000000000001
Pd     18.055000000000000     23.890000000000001     25.835000000000001
Pd     18.055000000000000     25.835000000000001     23.890000000000001
Pd     16.109999999999999     23.890000000000001     27.780000000000001
Pd     18.055000000000000     25.835000000000001     27.780000000000001
Pd     18.055000000000000     27.780000000000001     14.164999999999999
Pd     16.109999999999999     27.780000000000001     16.109999999999999
Pd     18.055000000000000     27.780000000000001     18.055000000000000
Pd     16.109999999999999     27.780000000000001     20.000000000000000
Pd     18.055000000000000     27.780000000000001     21.945000000000000
Pd     18.055000000000000     29.725000000000001     20.000000000000000
Pd     16.109999999999999     27.780000000000001     23.890000000000001
Pd     18.055000000000000     27.780000000000001     25.835000000000001
Pd     20.000000000000000     10.275000000000000     18.055000000000000
Pd     20.000000000000000     10.275000000000000     21.945000000000000
Pd     21.945000000000000     10.275000000000000     20.000000000000000
Pd     20.000000000000000     14.164999999999999     14.164999999999999
Pd     21.945000000000000     12.220000000000001     14.164999999999999
Pd     21.945000000000000     14.164999999999999     12.220000000000001
Pd     20.000000000000000     12.220000000000001     16.109999999999999
Pd     20.000000000000000     14.164999999999999     18.055000000000000
Pd     21.945000000000000     12.220000000000001     18.055000000000000
Pd     21.945000000000000     14.164999999999999     16.109999999999999
Pd     20.000000000000000     12.220000000000001     20.000000000000000
Pd     20.000000000000000     14.164999999999999     21.945000000000000
Pd     21.945000000000000     12.220000000000001     21.945000000000000
Pd     21.945000000000000     14.164999999999999     20.000000000000000
Pd     20.000000000000000     12.220000000000001     23.890000000000001
Pd     20.000000000000000     14.164999999999999     25.835000000000001
Pd     21.945000000000000     12.220000000000001     25.835000000000001
Pd     21.945000000000000     14.164999999999999     23.890000000000001
Pd     21.945000000000000     14.164999999999999     27.780000000000001
Pd     20.000000000000000     18.055000000000000     10.275000000000000
Pd     20.000000000000000     16.109999999999999     12.220000000000001
Pd     20.000000000000000     18.055000000000000     14.164999999999999
Pd     21.945000000000000     16.109999999999999     14.164999999999999
Pd     21.945000000000000     18.055000000000000     12.220000000000001
Pd     20.000000000000000     16.109999999999999     16.109999999999999
Pd     20.000000000000000     18.055000000000000     18.055000000000000
Pd     21.945000000000000     16.109999999999999     18.055000000000000
Pd     21.945000000000000     18.055000000000000     16.109999999999999
Pd     20.000000000000000     16.109999999999999     20.000000000000000
Pd     20.000000000000000     18.055000000000000     21.945000000000000
Pd     21.945000000000000     16.109999999999999     21.945000000000000
Pd     21.945000000000000     18.055000000000000     20.000000000000000
Pd     20.000000000000000     16.109999999999999     23.890000000000001
Pd     20.000000000000000     18.055000000000000     25.835000000000001
Pd     21.945000000000000     16.109999999999999     25.835000000000001
Pd     21.945000000000000     18.055000000000000     23.890000000000001
Pd     20.000000000000000     16.109999999999999     27.780000000000001
Pd     20.000000000000000     18.055000000000000     29.725000000000001
Pd     21.945000000000000     18.055000000000000     27.780000000000001
Pd     20.000000000000000     21.945000000000000     10.275000000000000
Pd     21.945000000000000     20.000000000000000     10.275000000000000
Pd     20.000000000000000     20.000000000000000     12.220000000000001
Pd     20.000000000000000     21.945000000000000     14.164999999999999
Pd     21.945000000000000     20.000000000000000     14.164999999999999
Pd     21.945000000000000     21.945000000000000     12.220000000000001
Pd     20.000000000000000     20.000000000000000     16.109999999999999
Pd     20.000000000000000     21.945000000000000     18.055000000000000
Pd     21.945000000000000     20.000000000000000     18.055000000000000
Pd     21.945000000000000     21.945000000000000     16.109999999999999
Pd     20.000000000000000     20.000000000000000     20.000000000000000
Pd     20.000000000000000     21.945000000000000     21.945000000000000
Pd     21.945000000000000     20.000000000000000     21.945000000000000
Pd     21.945000000000000     21.945000000000000     20.000000000000000
Pd     20.000000000000000     20.000000000000000     23.890000000000001
Pd     20.000000000000000     21.945000000000000     25.835000000000001
Pd     21.945000000000000     20.000000000000000     25.835000000000001
Pd     21.945000000000000     21.945000000000000     23.890000000000001
Pd     20.000000000000000     20.000000000000000     27.780000000000001
Pd     20.000000000000000     21.945000000000000     29.725000000000001
Pd     21.945000000000000     20.000000000000000     29.725000000000001
Pd     21.945000000000000     21.945000000000000     27.780000000000001
Pd     20.000000000000000     23.890000000000001     12.220000000000001
Pd     20.000000000000000     25.835000000000001     14.164999999999999
Pd     21.945000000000000     23.890000000000001     14.164999999999999
Pd     21.945000000000000     25.835000000000001     12.220000000000001
Pd     20.000000000000000     23.890000000000001     16.109999999999999
Pd     20.000000000000000     25.835000000000001     18.055000000000000
Pd     21.945000000000000     23.890000000000001     18.055000000000000
Pd     21.945000000000000     25.835000000000001     16.109999999999999
Pd     20.000000000000000     23.890000000000001     20.000000000000000
Pd     20.000000000000000     25.835000000000001     21.945000000000000
Pd     21.945000000000000     23.890000000000001     21.945000000000000
Pd     21.945000000000000     25.835000000000001     20.000000000000000
Pd     20.000000000000000     23.890000000000001     23.890000000000001
Pd     20.000000000000000     25.835000000000001     25.835000000000001
Pd     21.945000000000000     23.890000000000001     25.835000000000001
Pd     21.945000000000000     25.835000000000001     23.890000000000001
Pd     20.000000000000000     23.890000000000001     27.780000000000001
Pd     21.945000000000000     25.835000000000001     27.780000000000001
Pd     21.945000000000000     27.780000000000001     14.164999999999999
Pd     20.000000000000000     27.780000000000001     16.109999999999999
Pd     20.000000000000000     29.725000000000001     18.055000000000000
Pd     21.945000000000000     27.780000000000001     18.055000000000000
Pd     20.000000000000000     27.780000000000001     20.000000000000000
Pd     20.000000000000000     29.725000000000001     21.945000000000000
Pd     21.945000000000000     27.780000000000001     21.945000000000000
Pd     21.945000000000000     29.725000000000001     20.000000000000000
Pd     20.000000000000000     27.780000000000001     23.890000000000001
Pd     21.945000000000000     27.780000000000001     25.835000000000001
Pd     23.890000000000001     14.164999999999999     14.164999999999999
Pd     23.890000000000001     12.220000000000001     16.109999999999999
Pd     23.890000000000001     14.164999999999999     18.055000000000000
Pd     25.835000000000001     12.220000000000001     18.055000000000000
Pd     25.835000000000001     14.164999999999999     16.109999999999999
Pd     23.890000000000001     12.220000000000001     20.000000000000000
Pd     23.890000000000001     14.164999999999999     21.945000000000000
Pd     25.835000000000001     12.220000000000001     21.945000000000000
Pd     25.835000000000001     14.164999999999999     20.000000000000000
Pd     23.890000000000001     12.220000000000001     23.890000000000001
Pd     23.890000000000001     14.164999999999999     25.835000000000001
Pd     25.835000000000001     14.164999999999999     23.890000000000001
Pd     23.890000000000001     16.109999999999999     12.220000000000001
Pd     23.890000000000001     18.055000000000000     14.164999999999999
Pd     25.835000000000001     16.109999999999999     14.164999999999999
Pd     25.835000000000001     18.055000000000000     12.220000000000001
Pd     23.890000000000001     16.109999999999999     16.109999999999999
Pd     23.890000000000001     18.055000000000000     18.055000000000000
Pd     25.835000000000001     16.109999999999999     18.055000000000000
Pd     25.835000000000001     18.055000000000000     16.109999999999999
Pd     23.890000000000001     16.109999999999999     20.000000000000000
Pd     23.890000000000001     18.055000000000000     21.945000000000000
Pd     25.835000000000001     16.109999999999999     21.945000000000000
Pd     25.835000000000001     18.055000000000000     20.000000000000000
Pd     23.890000000000001     16.109999999999999     23.890000000000001
Pd     23.890000000000001     18.055000000000000     25.835000000000001
Pd     25.835000000000001     16.109999999999999     25.835000000000001
Pd     25.835000000000001     18.055000000000000     23.890000000000001
Pd     23.890000000000001     16.109999999999999     27.780000000000001
Pd     25.835000000000001     18.055000000000000     27.780000000000001
Pd     23.890000000000001     20.000000000000000     12.220000000000001
Pd     23.890000000000001     21.945000000000000     14.164999999999999
Pd     25.835000000000001     20.000000000000000     14.164999999999999
Pd     25.835000000000001     21.945000000000000     12.220000000000001
Pd     23.890000000000001     20.000000000000000     16.109999999999999
Pd     23.890000000000001     21.945000000000000     18.055000000000000
Pd     25.835000000000001     20.000000000000000     18.055000000000000
Pd     25.835000000000001     21.945000000000000     16.109999999999999
Pd     23.890000000000001     20.000000000000000     20.000000000000000
Pd     23.890000000000001     21.945000000000000     21.945000000000000
Pd     25.835000000000001     20.000000000000000     21.945000000000000
Pd     25.835000000000001     21.945000000000000     20.000000000000000
Pd     23.890000000000001     20.000000000000000     23.890000000000001
Pd     23.890000000000001     21.945000000000000     25.835000000000001
Pd     25.835000000000001     20.000000000000000     25.835000000000001
Pd     25.835000000000001     21.945000000000000     23.890000000000001
Pd     23.890000000000001     20.000000000000000     27.780000000000001
Pd     25.835000000000001     21.945000000000000     27.780000000000001
Pd     23.890000000000001     23.890000000000001     12.220000000000001
Pd     23.890000000000001     25.835000000000001     14.164999999999999
Pd     25.835000000000001     23.890000000000001     14.164999999999999
Pd     23.890000000000001     23.890000000000001     16.109999999999999
Pd     23.890000000000001     25.835000000000001     18.055000000000000
Pd     25.835000000000001     23.890000000000001     18.055000000000000
Pd     25.835000000000001     25.835000000000001     16.109999999999999
Pd     23.890000000000001     23.890000000000001     20.000000000000000
Pd     23.890000000000001     25.835000000000001     21.945000000000000
Pd     25.835000000000001     23.890000000000001     21.945000000000000
Pd     25.835000000000001     25.835000000000001     20.000000000000000
Pd     23.890000000000001     23.890000000000001     23.890000000000001
Pd     23.890000000000001     25.835000000000001     25.835000000000001
Pd     25.835000000000001     23.890000000000001     25.835000000000001
Pd     25.835000000000001     25.835000000000001     23.890000000000001
Pd     23.890000000000001     23.890000000000001     27.780000000000001
Pd     23.890000000000001     27.780000000000001     16.109999999999999
Pd     25.835000000000001     27.780000000000001     18.055000000000000
Pd     23.890000000000001     27.780000000000001     20.000000000000000
Pd     25.835000000000001     27.780000000000001     21.945000000000000
Pd     23.890000000000001     27.780000000000001     23.890000000000001
Pd     27.780000000000001     14.164999999999999     18.055000000000000
Pd     27.780000000000001     14.164999999999999     21.945000000000000
Pd     27.780000000000001     18.055000000000000     14.164999999999999
Pd     27.780000000000001     16.109999999999999     16.109999999999999
Pd     27.780000000000001     18.055000000000000     18.055000000000000
Pd     27.780000000000001     16.109999999999999     20.000000000000000
Pd     27.780000000000001     18.055000000000000     21.945000000000000
Pd     29.725000000000001     18.055000000000000     20.000000000000000
Pd     27.780000000000001     16.109999999999999     23.890000000000001
Pd     27.780000000000001     18.055000000000000     25.835000000000001
Pd     27.780000000000001     21.945000000000000     14.164999999999999
Pd     27.780000000000001     20.000000000000000     16.109999999999999
Pd     27.780000000000001     21.945000000000000     18.055000000000000
Pd     29.725000000000001     20.000000000000000     18.055000000000000
Pd     27.780000000000001     20.000000000000000     20.000000000000000
Pd     27.780000000000001     21.945000000000000     21.945000000000000
Pd     29.725000000000001     20.000000000000000     21.945000000000000
Pd     29.725000000000001     21.945000000000000     20.000000000000000
Pd     27.780000000000001     20.000000000000000     23.890000000000001
Pd     27.780000000000001     21.945000000000000     25.835000000000001
Pd     27.780000000000001     23.890000000000001     16.109999999999999
Pd     27.780000000000001     25.835000000000001     18.055000000000000
Pd     27.780000000000001     23.890000000000001     20.000000000000000
Pd     27.780000000000001     25.835000000000001     21.945000000000000
Pd     27.780000000000001     23.890000000000001     23.890000000000001
