969

Pd 405.196 402.358 406.92
Pd 407.402 403.649 406.713
Pd 406.62 402.523 408.959
Pd 405.205 404.469 408.217
Pd 407.101 405.967 408.116
Pd 408.722 403.833 408.852
Pd 409.234 405.549 406.887
Pd 411.302 407.425 406.941
Pd 410.623 405.639 408.945
Pd 409.106 407.759 408.377
Pd 411.05 409.58 408.354
Pd 412.681 407.561 409.119
Pd 413.279 409.127 407.106
Pd 415.395 410.829 407.302
Pd 414.851 409.26 409.276
Pd 413.105 411.382 408.517
Pd 415.116 413.206 408.624
Pd 416.842 411.038 409.345
Pd 417.159 412.783 407.365
Pd 419.592 414.194 407.269
Pd 419.143 413.004 409.313
Pd 417.349 415.218 408.555
Pd 419.324 416.839 408.46
Pd 421.062 414.861 409.258
Pd 421.321 416.193 407.064
Pd 423.587 418.154 407.373
Pd 423.056 416.515 409.163
Pd 421.371 418.642 408.498
Pd 423.379 420.453 408.469
Pd 425.432 418.028 409.296
Pd 425.977 419.79 407.359
Pd 427.816 421.457 407.234
Pd 427.337 419.877 409.545
Pd 425.656 422.073 408.585
Pd 427.854 423.701 408.449
Pd 429.711 421.534 409.33
Pd 429.938 422.992 407.16
Pd 432.291 424.687 407.511
Pd 431.642 423.243 409.306
Pd 429.976 425.303 408.56
Pd 432.066 426.96 408.557
Pd 433.839 425.019 409.627
Pd 434.484 426.268 407.503
Pd 436.615 427.77 407.406
Pd 436.661 425.626 408.841
Pd 433.928 428.793 408.25
Pd 436.267 429.821 408.984
Pd 437.451 426.557 411.457
Pd 438.047 428.107 409.585
Pd 406.241 404.521 410.616
Pd 404.985 406.602 409.628
Pd 406.981 408.303 409.599
Pd 406.199 406.938 411.914
Pd 404.742 409.047 411.065
Pd 406.686 410.592 411.27
Pd 407.988 402.858 411.368
Pd 410.01 404.268 411.212
Pd 409.506 403.146 413.753
Pd 407.833 404.889 412.699
Pd 408.457 406.235 410.519
Pd 410.475 407.953 410.621
Pd 410.021 406.478 412.796
Pd 408.262 408.574 412.026
Pd 408.776 410.255 409.915
Pd 410.858 411.862 409.727
Pd 410.315 410.361 412.139
Pd 408.678 412.486 411.351
Pd 410.67 414.056 411.301
Pd 411.678 404.46 413.614
Pd 412.162 405.898 411.337
Pd 414.073 407.729 411.431
Pd 413.879 406.134 413.673
Pd 412.147 408.172 412.983
Pd 412.627 409.818 410.713
Pd 414.639 411.528 410.658
Pd 414.182 409.965 412.857
Pd 412.419 412.158 412.125
Pd 412.863 413.725 409.996
Pd 414.882 415.604 409.869
Pd 414.47 413.724 412.051
Pd 412.724 415.899 411.46
Pd 414.846 417.784 411.414
Pd 415.824 407.959 413.671
Pd 416.318 409.355 411.526
Pd 418.493 411.292 411.32
Pd 417.873 409.891 413.636
Pd 416.255 411.819 412.891
Pd 416.866 413.321 410.48
Pd 418.906 415.272 410.638
Pd 418.245 413.516 412.71
Pd 416.631 415.428 411.967
Pd 417.141 417.314 410.275
Pd 419.313 419.16 409.985
Pd 418.902 417.386 412.204
Pd 417.278 419.616 411.543
Pd 419.28 421.428 411.415
Pd 419.996 411.737 413.474
Pd 420.504 413.125 411.439
Pd 422.685 414.765 411.395
Pd 422.208 413.212 413.61
Pd 420.429 415.3 412.747
Pd 420.993 417.047 410.68
Pd 423.05 418.765 410.582
Pd 422.515 417.113 412.903
Pd 420.914 419.285 412.214
Pd 421.304 420.965 410.039
Pd 423.511 422.49 410.006
Pd 422.964 421.109 412.175
Pd 421.348 423.266 411.672
Pd 423.42 424.818 411.514
Pd 424.089 415.024 413.509
Pd 424.562 416.718 411.436
Pd 427.079 418.22 411.517
Pd 426.513 416.761 413.574
Pd 424.738 418.848 412.788
Pd 425.118 420.35 410.657
Pd 427.252 422.136 410.683
Pd 426.905 420.506 412.787
Pd 425.193 422.863 412.307
Pd 425.581 424.244 410.139
Pd 427.731 425.71 410.245
Pd 427.304 424.382 412.479
Pd 425.497 426.588 411.579
Pd 427.54 428.171 411.431
Pd 428.498 418.565 413.713
Pd 429.133 420.098 411.324
Pd 431.275 421.777 411.507
Pd 430.632 420.237 413.691
Pd 429.092 422.335 412.922
Pd 429.443 423.765 410.757
Pd 431.55 425.666 410.776
Pd 431.032 424.162 412.901
Pd 429.322 426.258 412.487
Pd 429.81 427.477 410.058
Pd 431.654 429.236 409.662
Pd 431.241 428.044 412.239
Pd 429.552 429.859 411.519
Pd 432.019 430.709 411.717
Pd 432.561 422.225 413.674
Pd 433.269 423.564 411.434
Pd 435.547 425.113 411.563
Pd 434.91 423.776 413.797
Pd 433.12 425.81 413.002
Pd 433.25 427.653 410.954
Pd 435.408 427.398 409.883
Pd 435.275 427.377 412.927
Pd 434.058 429.584 412.81
Pd 434.139 430.127 410.292
Pd 436.868 425.662 414.041
Pd 436.425 429.127 411.494
Pd 406.129 409.147 413.476
Pd 404.642 411.247 412.629
Pd 406.516 412.93 412.908
Pd 405.876 411.422 415.168
Pd 404.445 413.217 414.423
Pd 406.262 415.212 414.497
Pd 409.528 405.253 415.094
Pd 407.698 407.063 414.272
Pd 409.688 408.768 414.514
Pd 409.09 407.473 416.746
Pd 407.445 409.274 415.82
Pd 408.099 410.789 413.638
Pd 410.147 412.596 413.589
Pd 409.506 411.088 415.925
Pd 407.889 413.001 415.161
Pd 408.365 414.668 412.895
Pd 410.655 416.382 412.953
Pd 409.898 414.825 415.156
Pd 408.309 416.948 414.299
Pd 410.484 418.801 414.38
Pd 410.907 403.303 415.986
Pd 413.132 404.861 415.959
Pd 412.447 403.558 418.157
Pd 410.87 405.406 417.288
Pd 411.56 406.732 415.163
Pd 413.649 408.521 415.046
Pd 413.167 407.126 417.239
Pd 411.416 409.067 416.59
Pd 411.749 410.518 414.361
Pd 414.02 412.195 414.369
Pd 413.448 410.88 416.666
Pd 411.896 412.857 415.839
Pd 412.328 414.281 413.625
Pd 414.408 416.074 413.612
Pd 413.961 414.52 415.799
Pd 412.212 416.735 415.03
Pd 412.763 418.358 412.907
Pd 414.838 420.009 412.677
Pd 414.3 418.501 414.899
Pd 412.603 420.51 414.409
Pd 414.713 422.416 414.287
Pd 414.75 405.009 417.946
Pd 415.303 406.481 415.811
Pd 417.439 408.296 415.694
Pd 416.844 406.87 417.972
Pd 415.24 408.876 417.349
Pd 415.71 410.273 415.13
Pd 417.854 412.091 415.233
Pd 417.316 410.493 417.33
Pd 415.429 412.495 416.671
Pd 416.164 414.125 414.323
Pd 418.379 415.79 414.34
Pd 417.74 414.332 416.615
Pd 416.157 416.394 415.65
Pd 416.6 417.837 413.472
Pd 418.703 419.827 413.662
Pd 418.167 418.184 415.752
Pd 416.298 420.27 414.891
Pd 416.946 421.913 413.005
Pd 419.08 423.726 413.001
Pd 418.397 422.206 415.148
Pd 416.855 424.19 414.4
Pd 418.955 425.99 414.438
Pd 419.031 408.503 417.992
Pd 419.514 409.933 415.879
Pd 421.751 411.623 415.664
Pd 421.122 410.357 417.886
Pd 419.57 412.314 417.241
Pd 420.014 413.864 415.159
Pd 422.055 415.567 415.083
Pd 421.671 413.867 417.265
Pd 419.869 416.106 416.672
Pd 420.352 417.671 414.475
Pd 422.573 419.563 414.364
Pd 421.959 417.97 416.598
Pd 420.36 419.971 415.825
Pd 420.845 421.72 413.689
Pd 423.045 423.295 413.696
Pd 422.585 421.718 415.886
Pd 420.628 423.905 415.221
Pd 421.292 425.488 413.143
Pd 423.285 427.067 413.045
Pd 422.786 425.621 415.252
Pd 421.067 427.638 414.555
Pd 423.025 429.3 414.5
Pd 423.302 411.95 417.916
Pd 423.832 413.441 415.718
Pd 425.625 415.307 415.742
Pd 425.135 413.835 418.124
Pd 423.546 415.648 417.271
Pd 424.091 417.402 415.026
Pd 426.362 419.018 415.115
Pd 425.644 417.406 417.302
Pd 424.073 419.424 416.59
Pd 424.768 421.021 414.542
Pd 426.831 422.757 414.45
Pd 426.048 421.311 416.765
Pd 424.602 423.486 415.746
Pd 425.21 425.143 413.68
Pd 427.125 426.905 413.766
Pd 426.51 425.421 415.916
Pd 424.85 427.348 415.215
Pd 425.381 428.888 413.028
Pd 427.377 430.446 412.815
Pd 427.097 429.282 415.204
Pd 424.998 430.99 414.37
Pd 427.356 432.066 414.8
Pd 427.169 415.437 418.104
Pd 427.86 416.837 415.801
Pd 429.909 418.677 415.802
Pd 429.493 417.173 418.057
Pd 427.786 419.388 417.304
Pd 428.425 420.797 415.087
Pd 430.439 422.669 415.241
Pd 429.772 421.015 417.351
Pd 428.17 423.146 416.665
Pd 428.776 424.592 414.6
Pd 430.893 426.444 414.531
Pd 430.34 425.003 416.694
Pd 428.613 427.027 416.112
Pd 429.188 428.581 413.901
Pd 431.438 429.916 414.009
Pd 430.905 428.511 416.213
Pd 429.326 430.688 415.714
Pd 429.674 431.599 413.385
Pd 431.429 418.922 417.978
Pd 431.89 420.486 415.81
Pd 433.999 422.309 415.697
Pd 433.491 420.622 417.904
Pd 432.009 422.76 417.542
Pd 432.522 424.452 415.307
Pd 434.571 426.021 415.319
Pd 433.991 424.493 417.582
Pd 432.474 426.507 416.959
Pd 433.057 428.044 414.793
Pd 435.329 422.266 418.012
Pd 436.035 423.804 416.041
Pd 405.821 413.703 416.729
Pd 404.272 415.734 416.103
Pd 406.237 417.262 416.073
Pd 405.603 415.919 418.331
Pd 404.24 417.964 417.343
Pd 406.189 419.665 417.394
Pd 408.921 409.622 418.095
Pd 407.362 411.616 417.408
Pd 409.557 413.372 417.297
Pd 409.142 411.917 419.413
Pd 407.512 413.891 418.882
Pd 407.853 415.369 416.579
Pd 410.008 417.096 416.495
Pd 409.556 415.578 418.756
Pd 407.724 417.61 418.175
Pd 408.344 419.011 416.005
Pd 410.339 420.913 415.943
Pd 409.842 419.389 418.155
Pd 408.183 421.472 417.404
Pd 410.409 423.149 417.331
Pd 412.451 405.812 419.368
Pd 410.819 407.73 418.646
Pd 412.923 409.325 418.859
Pd 412.537 407.783 421.056
Pd 410.639 409.877 420.336
Pd 411.195 411.325 418.069
Pd 413.245 413.137 418.103
Pd 412.758 411.52 420.409
Pd 411.145 413.602 419.572
Pd 411.781 415.118 417.369
Pd 413.916 417.012 417.165
Pd 413.315 415.326 419.635
Pd 411.731 417.389 418.763
Pd 412.024 418.945 416.546
Pd 414.151 420.644 416.515
Pd 413.793 419.131 418.942
Pd 411.904 421.185 417.962
Pd 412.636 422.845 415.743
Pd 414.351 424.704 415.816
Pd 414.126 423.083 418.031
Pd 412.371 424.97 417.357
Pd 414.449 426.985 417.408
Pd 414.024 403.86 420.337
Pd 416.406 405.289 420.2
Pd 416.099 404.153 422.441
Pd 414.222 405.802 421.963
Pd 414.603 407.282 419.579
Pd 416.902 409.06 419.52
Pd 416.119 407.443 421.91
Pd 414.708 409.377 421.044
Pd 415.202 411.09 418.808
Pd 417.32 412.852 418.783
Pd 416.948 411.372 420.968
Pd 415.027 413.347 420.356
Pd 415.501 414.804 418.029
Pd 417.611 416.713 418.054
Pd 417.1 415.024 420.292
Pd 415.374 417.14 419.404
Pd 415.976 418.707 417.132
Pd 417.913 420.513 417.19
Pd 417.581 418.988 419.403
Pd 415.81 421.021 418.804
Pd 416.177 422.681 416.549
Pd 418.396 424.363 416.636
Pd 417.8 422.867 418.747
Pd 416.108 424.848 418.14
Pd 416.723 426.344 416.038
Pd 418.974 428.11 416.003
Pd 418.32 426.677 418.182
Pd 416.612 428.49 417.405
Pd 418.763 430.364 417.482
Pd 418.112 405.819 422.352
Pd 418.638 407.026 420.157
Pd 420.637 408.831 420.065
Pd 420.38 407.339 422.577
Pd 418.492 409.232 421.814
Pd 418.968 410.84 419.461
Pd 421.082 412.503 419.507
Pd 420.606 410.953 421.683
Pd 418.942 413.069 421.182
Pd 419.406 414.524 418.915
Pd 421.502 416.412 418.939
Pd 420.975 414.705 421.111
Pd 419.186 416.943 420.224
Pd 419.722 418.519 418.017
Pd 421.912 420.083 418.087
Pd 421.219 418.705 420.339
Pd 419.668 420.698 419.539
Pd 420.091 422.21 417.372
Pd 422.394 424.01 417.358
Pd 421.603 422.447 419.54
Pd 419.822 424.479 419.016
Pd 420.522 426.029 416.781
Pd 422.635 427.91 416.799
Pd 422.157 426.284 418.996
Pd 420.375 428.435 418.176
Pd 420.901 429.788 416.011
Pd 422.946 431.675 415.991
Pd 422.545 430.192 418.17
Pd 420.724 431.984 417.459
Pd 422.713 433.659 417.737
Pd 422.402 408.988 422.286
Pd 422.844 410.683 420.18
Pd 424.959 412.257 420.3
Pd 424.282 410.871 422.522
Pd 422.549 412.857 421.873
Pd 423.019 414.185 419.636
Pd 425.178 415.952 419.748
Pd 424.644 414.366 421.897
Pd 422.92 416.678 421.208
Pd 423.548 418 418.943
Pd 425.456 419.826 418.886
Pd 425.089 418.312 421.183
Pd 423.29 420.324 420.386
Pd 423.897 422.007 418.243
Pd 425.943 423.827 418.056
Pd 425.484 422.434 420.447
Pd 423.64 424.33 419.728
Pd 424.259 425.854 417.493
Pd 426.377 427.683 417.467
Pd 425.954 426.051 419.682
Pd 424.215 428.046 418.994
Pd 424.886 429.72 416.643
Pd 427.043 431.297 417.193
Pd 426.328 429.802 419.212
Pd 424.607 431.722 418.318
Pd 425.169 432.962 416.097
Pd 426.459 412.592 422.464
Pd 426.81 413.995 420.304
Pd 428.631 415.858 420.28
Pd 428.397 414.401 422.491
Pd 426.72 416.251 421.987
Pd 427.191 417.887 419.6
Pd 429.169 419.543 419.592
Pd 428.72 417.997 421.897
Pd 427.158 420.059 421.189
Pd 427.737 421.626 418.922
Pd 429.845 423.351 418.826
Pd 429.143 421.951 421.142
Pd 427.684 423.995 420.17
Pd 428.147 425.511 418.064
Pd 430.301 427.172 418.296
Pd 429.753 425.626 420.367
Pd 428.086 427.791 419.743
Pd 428.577 429.144 417.62
Pd 430.425 416.022 422.479
Pd 430.835 417.475 420.2
Pd 433.013 419.115 420.052
Pd 432.391 417.64 422.233
Pd 430.812 419.776 421.665
Pd 431.375 421.205 419.677
Pd 433.509 422.931 419.612
Pd 433.036 421.408 421.936
Pd 431.445 423.531 421.115
Pd 431.781 425.073 419.107
Pd 434.36 419.254 422.381
Pd 434.79 420.681 420.235
Pd 405.681 418.129 419.785
Pd 404.188 420.004 419.073
Pd 406.044 422.027 418.822
Pd 405.478 420.43 421.233
Pd 404.207 422.469 420.423
Pd 405.707 424.435 420.002
Pd 408.894 414.128 421.178
Pd 407.403 416.024 420.383
Pd 409.466 417.946 420.368
Pd 408.879 416.422 422.594
Pd 407.323 418.327 421.84
Pd 407.601 419.954 419.664
Pd 409.764 421.833 419.54
Pd 409.444 420.348 421.83
Pd 407.278 422.484 421.031
Pd 407.985 423.731 418.945
Pd 410.118 425.384 418.961
Pd 409.604 423.937 421.018
Pd 407.926 426.185 420.238
Pd 410.025 427.862 420.303
Pd 412.397 409.973 422.378
Pd 410.489 412.157 421.767
Pd 412.727 413.888 421.812
Pd 412.277 412.105 423.838
Pd 410.558 414.364 423.314
Pd 411.056 415.927 421.098
Pd 413.278 417.662 421.152
Pd 412.636 416.085 423.288
Pd 410.978 417.977 422.735
Pd 411.43 419.621 420.376
Pd 413.448 421.455 420.218
Pd 412.98 420.006 422.527
Pd 411.371 422.057 421.811
Pd 411.895 423.626 419.711
Pd 413.928 425.449 419.58
Pd 413.349 423.887 421.897
Pd 411.66 425.814 421.16
Pd 412.307 427.373 419.151
Pd 414.326 429.025 419.024
Pd 413.765 427.556 421.293
Pd 412.05 429.637 420.615
Pd 414.247 431.23 420.5
Pd 415.704 406.137 424.133
Pd 413.916 407.96 423.284
Pd 416.274 409.773 423.297
Pd 415.755 408.443 425.563
Pd 414.145 410.237 424.729
Pd 414.579 411.68 422.575
Pd 416.514 413.665 422.47
Pd 416.054 412.092 424.761
Pd 414.323 413.977 423.947
Pd 414.868 415.795 421.751
Pd 416.886 417.5 421.665
Pd 416.341 416.103 423.947
Pd 414.587 418.019 423.395
Pd 415.187 419.528 420.993
Pd 417.326 421.328 420.896
Pd 416.662 419.817 423.139
Pd 414.978 421.877 422.481
Pd 415.561 423.28 420.285
Pd 417.614 424.95 420.438
Pd 417.129 423.568 422.626
Pd 415.584 425.645 422.029
Pd 416.127 426.976 419.744
Pd 417.976 428.895 419.583
Pd 417.724 427.361 421.992
Pd 416.003 429.285 421.288
Pd 416.484 430.784 418.996
Pd 418.472 432.492 418.863
Pd 418.129 431.129 421.082
Pd 416.291 432.993 420.572
Pd 418.32 434.554 420.676
Pd 417.548 404.544 424.51
Pd 419.749 405.868 424.697
Pd 419.084 404.623 426.815
Pd 417.478 406.469 426.32
Pd 417.857 407.782 424.023
Pd 420.087 409.618 423.914
Pd 419.396 408.195 426.226
Pd 417.707 410.09 425.614
Pd 418.258 411.582 423.331
Pd 420.383 413.356 423.353
Pd 419.736 411.789 425.678
Pd 418.018 414.038 424.707
Pd 418.596 415.329 422.566
Pd 420.643 417.158 422.452
Pd 420.186 415.699 424.908
Pd 418.449 417.695 423.985
Pd 419.029 419.209 421.786
Pd 421.108 420.989 421.866
Pd 420.555 419.414 423.988
Pd 418.774 421.572 423.347
Pd 419.476 422.902 421.143
Pd 421.413 424.709 421.224
Pd 420.914 423.304 423.451
Pd 419.359 425.221 422.67
Pd 419.837 426.918 420.401
Pd 421.995 428.517 420.505
Pd 421.385 427.015 422.614
Pd 419.691 428.974 422.083
Pd 420.354 430.578 419.808
Pd 422.423 432.294 419.862
Pd 421.845 430.663 421.922
Pd 420.136 432.788 421.153
Pd 420.476 434.107 419.093
Pd 421.153 406.193 426.986
Pd 421.793 407.626 424.76
Pd 423.858 409.168 424.736
Pd 423.433 407.77 426.976
Pd 421.528 409.831 426.24
Pd 422.1 411.229 424.074
Pd 424.114 413.162 424.114
Pd 423.597 411.548 426.372
Pd 421.928 413.593 425.689
Pd 422.387 415.227 423.436
Pd 424.567 416.724 423.307
Pd 424.088 415.312 425.638
Pd 422.369 417.444 424.872
Pd 422.866 418.923 422.593
Pd 424.917 420.724 422.46
Pd 424.359 419.25 424.666
Pd 422.78 421.205 423.985
Pd 423.228 422.762 421.741
Pd 425.32 424.697 421.949
Pd 424.78 423.068 424.003
Pd 423.192 425.056 423.409
Pd 423.733 426.73 421.278
Pd 425.928 428.348 421.15
Pd 425.301 426.918 423.418
Pd 423.612 428.882 422.975
Pd 424.139 430.173 420.637
Pd 425.349 409.638 427.023
Pd 425.752 411.16 424.887
Pd 427.738 412.701 424.703
Pd 427.338 411.429 427.121
Pd 425.708 413.372 426.497
Pd 426.29 414.751 424.143
Pd 428.305 416.542 424.13
Pd 427.69 415.139 426.342
Pd 426.035 417.045 425.495
Pd 426.472 418.659 423.368
Pd 428.636 420.446 423.328
Pd 428.169 418.791 425.5
Pd 426.518 421.064 424.733
Pd 427.057 422.48 422.682
Pd 429.218 424.124 422.623
Pd 428.522 422.778 424.837
Pd 426.812 424.772 424.025
Pd 427.618 426.055 421.885
Pd 429.314 413.22 427.207
Pd 429.824 414.478 424.712
Pd 431.869 416.214 424.777
Pd 431.489 414.665 427.15
Pd 430.021 416.814 426.306
Pd 430.33 418.304 423.925
Pd 432.386 419.929 423.978
Pd 431.758 418.77 426.401
Pd 430.09 420.655 425.567
Pd 430.779 422.148 423.33
Pd 433.325 416.5 426.921
Pd 433.687 418.054 424.714
Pd 405.448 422.741 422.795
Pd 404.107 424.802 422.035
Pd 405.9 426.765 421.69
Pd 405.242 425.226 424.189
Pd 403.922 427.239 423.237
Pd 405.775 429.083 423.443
Pd 408.798 418.798 424.008
Pd 407.063 420.686 423.177
Pd 409.06 422.609 423.285
Pd 408.495 420.896 425.634
Pd 407.099 422.927 424.796
Pd 407.278 424.685 422.489
Pd 409.368 426.224 422.584
Pd 408.764 424.798 424.877
Pd 407.154 427.027 424.012
Pd 407.921 428.426 421.999
Pd 410.027 430.091 422.053
Pd 409.25 428.521 424.363
Pd 407.844 430.722 423.399
Pd 409.933 432.327 423.512
Pd 412.18 414.484 425.395
Pd 410.341 416.59 424.774
Pd 412.319 418.402 424.884
Pd 411.926 416.931 426.969
Pd 410.149 419.019 426.242
Pd 410.932 420.644 424.112
Pd 412.943 422.504 424.076
Pd 412.262 420.757 426.161
Pd 410.505 422.824 425.679
Pd 411.042 424.366 423.399
Pd 413.237 425.996 423.456
Pd 412.668 424.545 425.728
Pd 410.98 426.672 424.964
Pd 411.346 428.109 422.632
Pd 413.791 429.715 422.833
Pd 413.098 428.305 424.944
Pd 411.411 430.329 424.191
Pd 412.056 431.726 422.105
Pd 414.068 433.458 421.834
Pd 413.574 432.106 424.194
Pd 411.909 434.096 423.493
Pd 413.836 435.577 423.296
Pd 415.673 410.529 427.024
Pd 413.84 412.472 426.244
Pd 415.767 414.431 426.186
Pd 415.341 412.974 428.43
Pd 413.668 414.979 427.626
Pd 414.139 416.327 425.479
Pd 416.302 418.291 425.588
Pd 415.746 416.73 427.64
Pd 413.897 418.798 426.879
Pd 414.571 420.299 424.702
Pd 416.619 422.001 424.785
Pd 416.242 420.702 427.039
Pd 414.435 422.447 426.318
Pd 415.016 424.228 424.203
Pd 417.147 425.781 424.234
Pd 416.628 424.31 426.451
Pd 414.819 426.252 425.776
Pd 415.46 427.687 423.57
Pd 417.617 429.673 423.435
Pd 416.893 428.139 425.808
Pd 415.356 429.998 424.873
Pd 415.857 431.599 422.753
Pd 417.974 433.276 422.817
Pd 417.538 431.813 424.955
Pd 415.78 433.929 424.185
Pd 416.019 435.043 421.959
Pd 418.715 406.623 428.59
Pd 417.182 408.609 427.819
Pd 419.171 410.338 427.893
Pd 418.612 408.86 430.208
Pd 416.986 410.928 429.423
Pd 417.416 412.328 427.103
Pd 419.605 414.026 427.027
Pd 419.088 412.693 429.312
Pd 417.387 414.697 428.595
Pd 417.893 416.147 426.256
Pd 420.108 418.156 426.204
Pd 419.421 416.499 428.583
Pd 417.84 418.373 427.851
Pd 418.253 419.958 425.391
Pd 420.382 421.682 425.527
Pd 419.807 420.192 427.835
Pd 418.295 422.341 427.137
Pd 418.646 423.874 424.856
Pd 420.978 425.568 424.954
Pd 420.306 424.083 426.955
Pd 418.619 426.207 426.642
Pd 419.118 427.55 424.287
Pd 421.384 429.104 424.157
Pd 420.798 427.853 426.524
Pd 419.085 429.799 425.693
Pd 419.768 431.458 423.403
Pd 420.406 404.941 429.171
Pd 422.501 406.359 429.232
Pd 421.919 405.195 431.508
Pd 420.411 407.124 430.638
Pd 420.968 408.313 428.451
Pd 423.009 410.043 428.424
Pd 422.512 408.667 430.734
Pd 420.681 410.524 430.058
Pd 421.375 411.968 427.892
Pd 423.389 413.884 427.929
Pd 422.68 412.288 430.041
Pd 421.114 414.432 429.222
Pd 421.748 415.899 427.203
Pd 423.896 417.784 427.169
Pd 423.371 416.212 429.268
Pd 421.616 418.227 428.607
Pd 422.241 419.75 426.268
Pd 424.365 421.347 426.215
Pd 423.794 420.09 428.573
Pd 422.025 421.964 427.821
Pd 422.66 423.392 425.614
Pd 424.67 425.386 425.508
Pd 424.129 423.991 427.664
Pd 422.509 425.706 427.136
Pd 423.014 427.269 424.9
Pd 424.087 406.638 431.421
Pd 424.606 408.008 429.336
Pd 426.836 409.76 429.308
Pd 426.366 408.307 431.423
Pd 424.58 410.468 430.66
Pd 425.203 411.824 428.606
Pd 427.421 413.778 428.665
Pd 426.781 412.197 430.708
Pd 424.968 414.093 430.179
Pd 425.592 415.717 427.881
Pd 427.684 417.462 427.825
Pd 427.135 415.867 430.175
Pd 425.479 417.999 429.284
Pd 425.95 419.407 427.001
Pd 428.048 421.15 427.009
Pd 427.529 419.813 429.219
Pd 425.854 421.702 428.508
Pd 426.202 423.293 426.155
Pd 428.347 410.092 431.56
Pd 428.93 411.431 429.251
Pd 430.97 413.144 429.232
Pd 430.375 411.657 431.571
Pd 428.85 413.974 430.862
Pd 429.419 415.521 428.612
Pd 431.511 417.111 428.69
Pd 430.774 415.622 430.832
Pd 429.157 417.825 430.202
Pd 429.762 419.122 427.929
Pd 432.217 413.469 431.433
Pd 432.709 415.156 429.446
Pd 405.171 427.376 425.647
Pd 403.581 429.311 424.65
Pd 405.483 431.272 424.798
Pd 404.882 429.668 426.971
Pd 403.564 431.583 426.112
Pd 405.335 433.477 426.323
Pd 408.429 423.155 427.311
Pd 406.818 425.037 426.438
Pd 408.462 426.935 426.471
Pd 408.177 425.57 428.609
Pd 406.429 427.525 427.818
Pd 407.15 429.212 425.667
Pd 409.212 430.99 425.658
Pd 408.388 429.236 427.874
Pd 406.896 431.518 427.033
Pd 407.549 432.874 424.883
Pd 409.773 434.653 424.956
Pd 409.043 433.377 427.032
Pd 407.432 435.258 426.264
Pd 409.425 436.763 426.381
Pd 411.827 419.318 428.527
Pd 410.063 421.191 427.955
Pd 412.148 423.03 427.846
Pd 411.782 421.577 429.946
Pd 409.912 423.544 429.395
Pd 410.354 425.018 427.206
Pd 412.594 426.788 427.236
Pd 411.952 425.375 429.367
Pd 410.15 427.192 428.621
Pd 410.768 428.869 426.521
Pd 412.995 430.542 426.464
Pd 412.46 429.122 428.524
Pd 410.71 431.091 427.802
Pd 411.406 432.622 425.637
Pd 413.57 434.408 425.628
Pd 413.068 432.901 427.773
Pd 411.271 435.07 427.046
Pd 411.859 436.312 424.839
Pd 414.963 415.257 429.95
Pd 413.493 417.325 429.019
Pd 415.529 418.98 429.225
Pd 414.815 417.551 431.466
Pd 413.248 419.458 430.796
Pd 413.948 421.02 428.607
Pd 415.956 423.05 428.659
Pd 415.4 421.372 430.65
Pd 413.725 423.438 430.132
Pd 414.167 424.841 427.949
Pd 416.39 426.649 427.945
Pd 415.841 425.193 430.174
Pd 414.143 427.126 429.39
Pd 414.716 428.61 427.259
Pd 416.869 430.483 427.177
Pd 416.378 429.086 429.307
Pd 414.739 431.128 428.433
Pd 415.134 432.361 426.131
Pd 418.43 411.085 431.685
Pd 416.871 413.301 430.749
Pd 418.994 414.93 430.734
Pd 418.371 413.503 433.078
Pd 416.567 415.465 432.319
Pd 417.113 416.983 430.123
Pd 419.357 418.725 430.009
Pd 418.816 417.198 432.252
Pd 417.122 419.421 431.445
Pd 417.682 420.873 429.308
Pd 419.784 422.507 429.432
Pd 419.403 420.988 431.546
Pd 417.607 423.142 430.922
Pd 418.163 424.576 428.67
Pd 420.387 426.351 428.653
Pd 419.824 424.723 430.756
Pd 418.052 426.824 430.07
Pd 418.445 428.529 427.95
Pd 422.023 407.378 432.983
Pd 420.306 409.081 432.281
Pd 422.282 410.956 432.28
Pd 421.87 409.579 434.485
Pd 420.003 411.464 433.697
Pd 420.485 412.88 431.601
Pd 422.614 414.5 431.549
Pd 422.061 413.353 433.841
Pd 420.323 415.262 433.179
Pd 421.116 416.596 430.892
Pd 423.16 418.487 430.705
Pd 422.808 416.84 433.063
Pd 421.101 419.011 432.141
Pd 421.601 420.52 429.957
Pd 423.633 422.451 429.799
Pd 423.176 420.605 432.101
Pd 421.439 422.782 431.578
Pd 421.919 424.193 429.155
Pd 423.629 405.396 433.697
Pd 425.752 407.119 433.774
Pd 425.107 405.854 436.045
Pd 423.54 407.52 435.115
Pd 424.158 408.866 432.948
Pd 426.145 410.674 432.817
Pd 425.562 409.292 435.214
Pd 424.039 411.287 434.735
Pd 424.58 412.642 432.398
Pd 426.69 414.512 432.29
Pd 426.106 412.904 434.496
Pd 424.35 414.811 433.78
Pd 424.846 416.446 431.557
Pd 426.876 418.379 431.454
Pd 426.407 416.736 433.756
Pd 424.719 418.784 432.853
Pd 425.267 420.311 430.647
Pd 427.342 407.25 435.877
Pd 427.912 408.765 433.744
Pd 429.879 410.358 433.738
Pd 429.662 409.167 436.24
Pd 427.868 410.928 435.042
Pd 428.267 412.506 432.935
Pd 430.403 414.363 433.056
Pd 429.83 412.856 435.066
Pd 428.071 414.813 434.521
Pd 428.513 416.304 432.388
Pd 431.484 410.853 435.751
Pd 431.859 412.431 433.779
Pd 404.744 431.907 428.506
Pd 403.292 433.756 427.698
Pd 405.263 435.833 427.817
Pd 404.472 434.093 429.911
Pd 403.045 436.033 429.187
Pd 405.043 437.841 429.283
Pd 407.929 427.945 430.012
Pd 406.397 430.072 429.17
Pd 408.546 431.75 429.118
Pd 408.067 430.355 431.193
Pd 406.563 432.368 430.621
Pd 406.76 433.875 428.528
Pd 408.968 435.538 428.67
Pd 408.575 433.992 430.667
Pd 406.709 435.952 430.065
Pd 407.271 437.307 427.892
Pd 411.479 423.789 431.508
Pd 409.773 425.843 430.859
Pd 411.875 427.726 430.821
Pd 411.096 425.983 432.989
Pd 409.58 428.251 432.214
Pd 410.225 429.555 429.988
Pd 412.467 431.416 429.812
Pd 411.887 430.042 432.177
Pd 410.278 431.903 431.132
Pd 410.857 433.505 429.077
Pd 414.889 419.962 432.822
Pd 413.204 421.831 432.157
Pd 415.141 423.764 432.273
Pd 414.942 422.071 434.429
Pd 412.859 424.002 433.648
Pd 413.516 425.66 431.648
Pd 415.843 427.584 431.472
Pd 415.372 426.151 433.559
Pd 413.504 427.959 432.708
Pd 414.214 429.455 430.595
Pd 418.124 415.867 434.481
Pd 416.592 417.847 433.492
Pd 418.66 419.5 433.577
Pd 418.283 418.166 435.896
Pd 416.541 420.091 435.177
Pd 416.993 421.583 432.942
Pd 419.232 423.229 432.986
Pd 418.592 421.719 435.04
Pd 416.935 423.843 434.317
Pd 417.538 425.484 432.248
Pd 421.567 411.734 435.835
Pd 419.906 413.688 435.358
Pd 422.084 415.42 435.305
Pd 421.533 414.007 437.5
Pd 419.792 416.027 436.564
Pd 420.452 417.574 434.427
Pd 422.741 419.205 434.283
Pd 422.011 417.662 436.422
Pd 420.303 419.864 435.667
Pd 420.97 421.323 433.777
Pd 425.049 408.23 437.402
Pd 423.091 409.909 436.684
Pd 425.385 411.344 436.942
Pd 424.687 409.987 439.132
Pd 423.152 412.084 438.258
Pd 423.863 413.444 436.056
Pd 425.945 415.247 435.94
Pd 425.475 413.874 438.056
Pd 423.804 415.858 437.307
Pd 424.352 417.194 435.138
Pd 426.446 406.299 438.231
Pd 428.822 407.376 438.159
Pd 427.416 406.448 440.51
Pd 427.087 408.875 439.488
Pd 427.374 409.689 437.157
Pd 429.388 411.567 437.279
Pd 428.362 410.399 441.2
Pd 427.185 411.596 439.06
Pd 427.536 413.245 436.766
Pd 429.491 407.867 440.646
Pd 429.453 409.617 438.91
Pd 404.578 436.211 431.471
Pd 402.852 437.995 430.459
Pd 408.256 432.601 432.789
Pd 406.338 434.439 431.993
Pd 411.37 428.492 434.145
Pd 409.666 430.4 433.225
Pd 414.694 424.352 435.54
Pd 413.065 426.338 434.627
Pd 418.338 420.534 437.209
Pd 416.716 422.411 436.483
Pd 421.664 416.404 438.592
Pd 419.82 418.526 437.837
Pd 425.076 412.42 440.024
Pd 423.344 414.416 439.486
Pd 425.113 407.597 440.125
Pd 425.837 410.47 441.317
Pd 427.041 408.386 442.027
