1330

Pd 413.916 408.436 409.47
Pd 408.204 410.042 406.795
Pd 410.283 409.03 407.933
Pd 413.625 406.551 414.057
Pd 411.367 410.848 406.26
Pd 416.217 409.477 410.431
Pd 407.47 412.673 406.443
Pd 413.811 411.877 406.343
Pd 412.769 408.95 406.837
Pd 411.491 413.33 405.838
Pd 413.493 414.494 406.988
Pd 415.117 410.347 407.983
Pd 415.717 412.955 407.598
Pd 417.846 414.324 407.527
Pd 417.309 411.799 409.077
Pd 415.74 415.727 407.931
Pd 417.866 416.6 409.052
Pd 419.088 413.543 409.666
Pd 419.979 415.504 408.136
Pd 422.504 416.539 408.793
Pd 421.399 414.678 410.253
Pd 420.305 417.512 409.702
Pd 422.763 418.536 410.381
Pd 423.686 415.854 411.141
Pd 425.024 417.408 409.606
Pd 427.369 418.431 410.483
Pd 426.246 416.964 412.137
Pd 425.247 419.445 411.25
Pd 427.653 420.508 412.156
Pd 428.641 418.001 412.856
Pd 430.065 419.369 411.274
Pd 432.146 420.926 412.049
Pd 430.858 419.138 413.775
Pd 429.918 421.655 412.828
Pd 430.393 423.989 412.2
Pd 433.074 420.252 414.555
Pd 432.247 422.725 413.954
Pd 434.601 423.509 414.542
Pd 435.404 421.059 415.455
Pd 432.409 424.647 415.662
Pd 434.794 425.608 416.095
Pd 437.913 422.03 416.101
Pd 437.114 424.291 414.976
Pd 439.271 425.455 415.911
Pd 440.404 423.352 417.005
Pd 436.98 426.725 417.257
Pd 435.384 426.076 413.635
Pd 442.791 424.161 417.825
Pd 435.371 428.101 415.558
Pd 433.202 429.202 416.506
Pd 437.81 429.147 416.104
Pd 432.993 427.069 414.557
Pd 442.891 426.294 419.2
Pd 441.688 426.308 416.357
Pd 437.487 426.843 414.615
Pd 412.608 406.853 411.362
Pd 409.448 411.866 405.168
Pd 409.259 414.323 406.618
Pd 407.367 412.252 408.987
Pd 406.806 414.608 408.072
Pd 408.608 416.273 409.094
Pd 414.625 407.902 412.179
Pd 411.589 407.138 408.837
Pd 409.098 407.62 409.772
Pd 408.321 409.931 409.315
Pd 409.73 412.003 407.742
Pd 411.985 413.138 408.374
Pd 410.378 411.582 410.176
Pd 409.482 413.955 409.425
Pd 411.085 415.51 407.656
Pd 413.377 416.328 408.797
Pd 411.693 415.066 410.383
Pd 410.858 417.272 409.871
Pd 413.243 418.405 410.692
Pd 411.14 409.033 410.501
Pd 412.589 410.636 408.706
Pd 414.922 411.803 409.932
Pd 413.47 410.095 411.42
Pd 412.609 412.51 411.277
Pd 414.215 413.989 409.449
Pd 416.763 414.333 410.08
Pd 415.077 413.282 412.007
Pd 414.468 415.749 411.22
Pd 415.478 417.571 409.6
Pd 417.985 418.639 410.426
Pd 416.763 416.846 412.093
Pd 415.835 419.398 411.566
Pd 418.318 420.822 412.329
Pd 415.754 410.813 412.823
Pd 417.578 411.866 411.585
Pd 419.885 413.367 412.068
Pd 418.174 411.82 413.957
Pd 417.539 414.258 412.664
Pd 419.035 415.875 411.168
Pd 421.436 416.819 411.977
Pd 419.902 415.367 413.873
Pd 419.17 417.931 412.918
Pd 420.529 419.562 411.339
Pd 422.964 420.573 412.159
Pd 421.34 418.79 413.916
Pd 420.724 421.499 413.279
Pd 422.954 422.533 413.949
Pd 420.61 412.73 414.678
Pd 422.219 414.224 412.814
Pd 424.53 415.476 413.645
Pd 423.352 413.87 415.293
Pd 422.39 416.336 414.624
Pd 423.629 417.837 412.781
Pd 426.116 418.986 413.689
Pd 424.763 417.471 415.489
Pd 423.806 419.835 414.566
Pd 425.205 421.417 412.921
Pd 427.432 422.523 413.919
Pd 426.002 421.081 415.635
Pd 425.225 423.494 414.809
Pd 427.64 424.89 415.661
Pd 425.678 414.938 416.209
Pd 427.018 416.377 414.634
Pd 429.379 417.439 415.322
Pd 427.934 415.988 417.137
Pd 427.224 418.617 416.15
Pd 428.616 420.101 414.517
Pd 430.897 421.089 415.501
Pd 429.442 419.697 416.895
Pd 428.419 422.293 416.15
Pd 429.974 423.795 414.684
Pd 430.675 426.26 413.964
Pd 430.806 423.057 417.048
Pd 429.949 425.742 416.564
Pd 430.822 428.202 415.792
Pd 430.155 417.157 417.937
Pd 431.866 418.504 416.198
Pd 434.135 419.59 416.985
Pd 432.721 418.149 419.049
Pd 431.833 420.455 417.936
Pd 433.266 422.243 416.454
Pd 435.592 423.113 417.029
Pd 434.039 421.717 418.733
Pd 433.403 424.187 418.064
Pd 432.563 426.597 417.205
Pd 434.81 427.772 418.153
Pd 435.724 425.155 418.945
Pd 432.521 428.745 419.157
Pd 434.988 429.862 419.978
Pd 435.049 419.237 419.746
Pd 436.329 420.81 418.127
Pd 438.895 421.731 418.668
Pd 437.344 420.351 420.583
Pd 436.408 422.877 419.623
Pd 437.966 424.128 417.736
Pd 440.263 425.236 418.576
Pd 438.756 423.771 420.481
Pd 437.889 426.2 419.597
Pd 437.172 428.893 418.973
Pd 432.947 425.096 412.941
Pd 440.331 427.17 420.336
Pd 438.201 431.13 417.941
Pd 441.958 428.355 417.933
Pd 439.802 421.385 421.191
Pd 441.377 422.612 419.31
Pd 443.619 424.176 420.319
Pd 442.119 422.455 421.831
Pd 441.099 424.629 420.894
Pd 439.978 427.86 415.116
Pd 439.4 427.465 417.758
Pd 442.383 428.687 420.302
Pd 439.895 429.478 419.385
Pd 435.586 430.207 417.339
Pd 442.913 426.686 421.681
Pd 440.374 429.748 416.659
Pd 406.999 414.515 410.754
Pd 406.294 416.754 410.334
Pd 408.499 418.126 410.959
Pd 406.972 416.625 412.7
Pd 406.285 418.971 412.022
Pd 408.371 420.236 412.511
Pd 408.859 409.952 411.899
Pd 408.014 412.324 411.413
Pd 410.199 413.417 412.245
Pd 408.694 411.645 413.754
Pd 407.906 414.243 413.357
Pd 409.32 415.88 411.596
Pd 412.027 416.664 412.359
Pd 410.161 415.332 414.145
Pd 409.291 417.619 413.386
Pd 410.743 419.13 411.645
Pd 413.352 420.188 412.634
Pd 411.889 418.674 413.995
Pd 410.978 421.262 413.55
Pd 413.23 422.353 414.262
Pd 410.13 407.232 412.281
Pd 412.244 408.63 412.992
Pd 410.988 406.98 414.804
Pd 409.826 409.509 414.439
Pd 411.158 410.95 412.718
Pd 413.573 411.691 413.615
Pd 412.068 410.363 415.305
Pd 410.838 412.567 414.626
Pd 412.69 414.101 413.256
Pd 415.111 415.231 413.818
Pd 413.572 413.752 415.743
Pd 413.053 416.324 414.881
Pd 414.542 417.867 413.103
Pd 416.762 419.064 413.993
Pd 415.26 417.37 415.852
Pd 414.329 419.989 414.915
Pd 415.607 421.519 413.407
Pd 418.089 422.631 413.993
Pd 416.725 421.047 415.93
Pd 415.733 423.452 415.092
Pd 418.267 424.592 415.9
Pd 412.977 407.634 416.18
Pd 414.562 409.097 414.534
Pd 416.85 410.148 415.405
Pd 415.438 408.605 417.088
Pd 414.536 411.228 416.37
Pd 415.89 412.769 414.564
Pd 418.267 413.955 415.369
Pd 416.87 412.387 417.168
Pd 415.839 414.778 416.444
Pd 417.436 416.474 414.451
Pd 419.888 417.356 415.489
Pd 418.318 415.903 417.24
Pd 417.626 418.439 416.526
Pd 419.172 420.112 414.877
Pd 421.399 421.026 415.662
Pd 420.004 419.255 417.396
Pd 419.01 422 416.501
Pd 420.504 423.438 415.11
Pd 423.079 424.624 415.485
Pd 421.391 423.037 417.479
Pd 420.727 425.578 416.874
Pd 423.144 426.584 417.42
Pd 417.749 409.863 417.953
Pd 419.186 411.505 416.382
Pd 421.683 412.503 417.186
Pd 420.193 410.849 418.843
Pd 419.289 413.435 418.09
Pd 420.875 414.871 416.402
Pd 423.256 416.101 417.321
Pd 421.702 414.519 419.011
Pd 420.756 416.886 418.198
Pd 422.297 418.422 416.284
Pd 424.639 419.471 417.354
Pd 423.138 417.976 419.134
Pd 422.342 420.55 418.392
Pd 423.69 422.147 416.478
Pd 426.006 423.113 417.363
Pd 424.616 421.721 419.03
Pd 423.766 424.077 418.24
Pd 425.349 425.588 416.617
Pd 427.753 427.244 417.258
Pd 426.31 425.392 419.009
Pd 425.403 427.904 418.103
Pd 427.655 428.778 419.284
Pd 422.478 411.976 419.772
Pd 424.171 413.488 417.801
Pd 426.523 414.522 418.72
Pd 424.991 413.096 420.196
Pd 424.308 415.531 419.83
Pd 425.693 417.067 417.981
Pd 428.06 418.383 418.875
Pd 426.572 416.674 420.569
Pd 425.616 419.248 419.884
Pd 426.913 420.752 418.047
Pd 429.259 421.485 418.708
Pd 427.95 420.381 420.899
Pd 427.018 422.839 419.813
Pd 428.571 424.214 418.259
Pd 430.933 425.286 418.962
Pd 429.385 423.839 420.708
Pd 428.721 426.345 419.766
Pd 430.165 427.924 418.189
Pd 431.18 430.42 417.669
Pd 430.863 427.263 420.803
Pd 429.985 429.833 419.936
Pd 432.304 430.772 420.732
Pd 427.351 414.211 421.395
Pd 428.919 415.707 419.663
Pd 431.226 416.624 420.57
Pd 429.593 415.171 422.008
Pd 428.865 417.657 421.434
Pd 430.385 419.22 419.795
Pd 432.675 420.203 420.579
Pd 431.112 418.902 422.211
Pd 430.228 421.433 421.504
Pd 431.623 422.544 419.687
Pd 434.199 423.777 420.815
Pd 432.695 422.43 422.305
Pd 431.917 424.733 421.575
Pd 433.382 426.205 419.846
Pd 435.585 427.242 420.688
Pd 434.183 426.023 422.391
Pd 433.317 428.495 421.647
Pd 433.491 431.327 418.548
Pd 436.263 431.965 419.138
Pd 435.763 429.369 422.459
Pd 434.084 432.735 420.523
Pd 436.023 431.879 421.933
Pd 431.851 416.572 423.032
Pd 433.571 417.729 421.549
Pd 435.731 418.858 422.285
Pd 434.553 417.583 424.248
Pd 433.294 419.887 423.206
Pd 434.996 421.274 421.505
Pd 437.394 422.375 422.258
Pd 436 420.974 424.047
Pd 435.004 423.497 423.277
Pd 436.46 424.972 421.556
Pd 438.977 425.838 422.322
Pd 437.413 424.553 424.226
Pd 436.484 426.991 423.277
Pd 438.069 428.232 421.544
Pd 440.346 429.202 422.023
Pd 438.966 427.809 424.096
Pd 437.879 430.294 423.366
Pd 438.029 430.82 420.696
Pd 436.8 418.596 424.951
Pd 438.227 419.877 422.999
Pd 440.803 421.025 423.753
Pd 439.217 419.69 425.486
Pd 438.527 421.992 424.731
Pd 439.791 423.296 422.988
Pd 442.121 424.555 423.556
Pd 440.819 423.178 425.487
Pd 439.813 425.449 424.817
Pd 441.069 426.957 423.224
Pd 441.206 420.555 426.388
Pd 443.007 422.075 424.401
Pd 406.848 418.733 414.533
Pd 406.196 421.064 413.938
Pd 408.571 421.997 414.41
Pd 407.072 420.757 416.358
Pd 406.457 423.232 415.716
Pd 408.728 424.262 416.204
Pd 408.744 413.512 415.936
Pd 407.993 416.116 415.296
Pd 410.661 417.165 415.799
Pd 409.031 415.654 417.522
Pd 408.07 418.255 416.992
Pd 409.344 419.607 415.111
Pd 411.787 420.708 415.982
Pd 410.163 419.206 417.83
Pd 409.448 421.614 416.9
Pd 411.001 423.314 415.195
Pd 413.568 424.349 416.028
Pd 411.969 422.767 417.772
Pd 411.118 425.089 416.994
Pd 413.347 426.517 417.841
Pd 410.665 408.785 416.955
Pd 409.515 411.101 416.549
Pd 412 412.218 417.374
Pd 410.56 410.608 418.887
Pd 409.834 413.134 418.297
Pd 411.218 414.72 416.421
Pd 413.776 415.848 417.515
Pd 412.065 414.46 419.044
Pd 411.31 416.871 418.254
Pd 412.829 418.328 416.603
Pd 415.229 419.489 417.509
Pd 413.559 417.91 419.161
Pd 412.777 420.353 418.478
Pd 414.214 421.805 416.811
Pd 416.879 423.013 417.667
Pd 414.995 421.415 419.485
Pd 414.262 423.895 418.76
Pd 415.816 425.503 417.047
Pd 418.096 426.573 417.789
Pd 416.592 424.99 419.474
Pd 415.915 427.626 418.59
Pd 418.188 428.548 419.632
Pd 411.337 406.499 417.676
Pd 413.804 407.09 418.827
Pd 412.4 406.362 420.532
Pd 411.333 408.431 419.678
Pd 412.999 409.597 417.867
Pd 415.437 410.929 418.836
Pd 413.847 409.221 420.417
Pd 412.787 411.709 419.848
Pd 414.239 413.382 418.286
Pd 416.922 414.278 418.886
Pd 415.346 412.847 420.795
Pd 414.497 415.443 419.963
Pd 416.125 416.898 418.336
Pd 418.413 418.001 419.243
Pd 416.98 416.359 420.848
Pd 415.978 418.852 420.167
Pd 417.632 420.544 418.389
Pd 419.95 421.687 419.119
Pd 418.44 420.214 420.985
Pd 417.509 422.757 420.268
Pd 419.156 424.251 418.422
Pd 421.534 425.117 419.385
Pd 419.865 423.557 421.105
Pd 419.062 426.051 420.264
Pd 420.608 427.562 418.731
Pd 422.893 428.678 419.296
Pd 421.539 427.266 421.04
Pd 420.602 429.679 420.208
Pd 422.859 430.79 421.265
Pd 414.955 406.84 421.323
Pd 416.26 408.472 419.731
Pd 418.404 409.487 420.62
Pd 417.187 408.027 422.285
Pd 416.216 410.422 421.528
Pd 417.741 411.962 419.67
Pd 420.183 412.944 420.526
Pd 418.638 411.421 422.235
Pd 417.857 413.877 421.436
Pd 419.278 415.517 419.884
Pd 421.902 416.507 420.765
Pd 419.962 414.947 422.413
Pd 419.174 417.496 421.736
Pd 420.72 419.108 419.939
Pd 423.266 420.035 420.822
Pd 421.798 418.632 422.561
Pd 420.776 421.055 421.647
Pd 422.302 422.529 419.962
Pd 424.629 423.946 420.792
Pd 423.366 422.294 422.418
Pd 422.336 424.746 421.876
Pd 423.916 426.261 419.844
Pd 426.204 427.391 420.857
Pd 424.374 426.102 422.536
Pd 424.055 428.452 421.836
Pd 425.19 429.753 420.009
Pd 427.572 430.742 421.068
Pd 426.413 429.488 422.896
Pd 425.342 431.741 421.851
Pd 427.606 432.893 422.927
Pd 419.61 409.052 423.096
Pd 421.143 410.429 421.38
Pd 423.332 411.542 422.202
Pd 421.91 410.085 423.924
Pd 420.902 412.438 423.048
Pd 422.481 413.967 421.515
Pd 424.98 415.183 422.321
Pd 423.595 413.554 423.952
Pd 422.539 415.864 423.308
Pd 424.412 417.596 421.638
Pd 426.55 418.717 422.497
Pd 424.992 417.169 424.194
Pd 424.115 419.812 423.397
Pd 425.558 421.26 421.544
Pd 427.888 422.555 422.457
Pd 426.344 420.846 424.128
Pd 425.495 423.57 423.695
Pd 426.923 424.835 421.563
Pd 429.425 425.894 422.491
Pd 427.936 424.483 424.248
Pd 426.973 426.898 423.486
Pd 428.649 428.362 421.924
Pd 430.976 429.478 422.717
Pd 429.469 428.093 424.438
Pd 428.721 430.574 423.758
Pd 429.846 431.824 421.785
Pd 432.205 433.036 422.351
Pd 430.972 431.71 424.274
Pd 429.89 433.809 423.413
Pd 432.197 434.782 424.194
Pd 424.389 411.067 424.681
Pd 425.86 412.658 423.008
Pd 428.055 413.779 423.995
Pd 426.702 412.111 425.581
Pd 425.833 414.629 424.934
Pd 427.184 416.253 423.235
Pd 429.602 417.363 423.954
Pd 428.161 415.81 425.796
Pd 427.274 418.297 425.207
Pd 428.89 419.869 423.399
Pd 431.065 420.977 424.116
Pd 429.779 419.595 426.002
Pd 428.701 422.07 425.087
Pd 430.374 423.5 423.496
Pd 432.833 424.55 424.243
Pd 431.252 423.197 425.95
Pd 430.267 425.619 425.179
Pd 431.856 426.992 423.331
Pd 434.092 428.062 424.216
Pd 432.584 426.677 425.947
Pd 431.81 429.108 425.114
Pd 433.501 430.909 423.126
Pd 435.683 431.642 424.504
Pd 434.24 429.968 425.798
Pd 433.249 432.56 425.004
Pd 434.605 433.605 423.008
Pd 428.951 413.33 426.373
Pd 430.459 414.764 424.641
Pd 432.871 416.054 425.558
Pd 431.359 414.362 427.338
Pd 430.399 417.038 426.414
Pd 432.116 418.658 425.069
Pd 434.478 419.575 425.671
Pd 432.919 417.991 427.486
Pd 432.075 420.748 426.729
Pd 433.629 422.074 425.063
Pd 435.833 423.169 425.893
Pd 434.511 421.55 427.553
Pd 433.662 424.347 426.684
Pd 434.969 425.619 424.825
Pd 437.525 426.585 425.945
Pd 436.064 425.25 427.52
Pd 435.025 427.698 426.664
Pd 436.577 428.813 425.037
Pd 433.678 415.35 428.301
Pd 435.332 417.039 426.735
Pd 437.563 418.244 427.45
Pd 436.343 416.532 429.139
Pd 435.398 419.176 428.537
Pd 436.914 420.729 426.674
Pd 439.239 421.654 427.309
Pd 437.654 420.15 429.162
Pd 436.88 422.856 428.299
Pd 438.336 424.029 426.556
Pd 438.293 417.907 429.988
Pd 439.912 419.296 428.155
Pd 407.226 422.676 418.092
Pd 406.659 425.273 417.069
Pd 408.939 426.148 417.9
Pd 407.414 424.739 419.659
Pd 406.474 427.09 419.014
Pd 408.832 428.205 419.734
Pd 408.848 417.89 419.61
Pd 407.776 420.132 418.755
Pd 410.436 421.127 419.518
Pd 408.685 419.843 421.463
Pd 408.119 422.034 420.413
Pd 409.778 423.694 419.01
Pd 412.038 425.033 419.575
Pd 410.437 423.4 421.481
Pd 409.63 425.906 420.655
Pd 411.108 427.431 418.568
Pd 413.602 428.523 419.643
Pd 411.989 427.246 421.372
Pd 411.076 429.432 420.276
Pd 413.218 430.517 421.362
Pd 410.54 412.906 420.887
Pd 409.922 415.442 419.911
Pd 412.176 416.449 420.963
Pd 410.454 414.88 422.709
Pd 409.685 417.487 422.107
Pd 411.336 418.715 420.371
Pd 413.485 419.945 421.188
Pd 411.997 418.427 423.056
Pd 411.075 420.908 422.058
Pd 412.642 422.222 420.435
Pd 414.832 423.583 421.268
Pd 413.389 422.139 423.064
Pd 412.635 424.563 422.057
Pd 414.327 426.03 420.298
Pd 416.577 427.081 421.146
Pd 415.123 425.613 423.046
Pd 414.404 428.211 422.125
Pd 415.91 429.65 420.411
Pd 418.21 430.558 421.416
Pd 416.738 429.167 423.008
Pd 415.936 431.466 422.319
Pd 418.116 432.658 423.15
Pd 412.375 407.992 422.536
Pd 411.475 410.312 421.52
Pd 413.715 411.162 422.441
Pd 412.226 409.999 424.478
Pd 411.535 412.449 423.299
Pd 412.979 413.74 421.584
Pd 415.225 415.097 422.583
Pd 413.88 413.284 424.457
Pd 412.904 416.034 423.617
Pd 414.285 417.577 421.946
Pd 416.972 418.495 422.683
Pd 415.335 417.07 424.386
Pd 414.49 419.613 423.694
Pd 416.057 421.247 421.993
Pd 418.378 422.421 423.077
Pd 416.751 420.621 424.531
Pd 415.944 423.19 423.868
Pd 417.436 424.579 421.919
Pd 420.001 425.616 422.898
Pd 418.566 424.375 424.767
Pd 417.331 426.653 423.946
Pd 419.039 427.963 422.133
Pd 421.507 429.125 422.911
Pd 420.03 427.648 424.652
Pd 419.222 429.968 423.939
Pd 420.657 431.503 422.153
Pd 422.893 432.737 423.174
Pd 421.423 431.22 424.78
Pd 420.421 433.499 424.004
Pd 422.662 434.867 424.793
Pd 413.68 405.641 423.026
Pd 415.794 406.531 424.094
Pd 414.247 405.327 425.554
Pd 413.222 407.639 425.052
Pd 414.569 408.854 423.226
Pd 417.209 409.98 423.976
Pd 415.677 408.468 425.717
Pd 414.702 410.885 425.025
Pd 416.247 412.522 423.209
Pd 418.548 413.379 424.188
Pd 416.938 411.995 425.889
Pd 416.122 414.337 425.078
Pd 417.665 415.974 423.349
Pd 420.142 417.101 424.061
Pd 418.565 415.418 426.03
Pd 417.909 418.171 425.376
Pd 419.359 419.623 423.542
Pd 421.749 420.7 424.406
Pd 420.388 419.169 426.069
Pd 419.31 421.602 425.326
Pd 420.916 422.965 423.546
Pd 423.115 424.325 424.422
Pd 421.638 422.823 426.178
Pd 420.9 425.309 425.565
Pd 422.339 426.908 423.719
Pd 424.742 427.912 424.722
Pd 423.199 426.442 426.346
Pd 422.407 428.826 425.571
Pd 423.798 430.433 423.579
Pd 426.095 431.642 424.708
Pd 424.616 430.095 426.413
Pd 423.768 432.472 425.631
Pd 425.201 433.803 423.621
Pd 427.455 435.042 424.387
Pd 426.079 433.615 426.3
Pd 425.109 436.04 425.4
Pd 427.479 436.787 426.235
Pd 416.713 406.033 426.632
Pd 418.119 407.659 424.874
Pd 420.592 408.537 425.642
Pd 418.994 407.225 427.386
Pd 417.945 409.726 426.597
Pd 419.504 410.89 425.033
Pd 422.157 412.209 425.657
Pd 420.649 410.582 427.342
Pd 419.485 412.902 426.72
Pd 420.876 414.65 424.845
Pd 423.491 415.699 425.822
Pd 421.893 414.06 427.535
Pd 421.17 416.512 426.675
Pd 422.51 418.225 425.049
Pd 424.937 419.294 425.985
Pd 423.486 417.8 427.642
Pd 422.613 420.551 426.906
Pd 424.139 421.878 425.17
Pd 426.228 423.085 426.047
Pd 424.842 421.46 427.843
Pd 424.081 424.006 427.12
Pd 425.63 425.604 425.256
Pd 428.001 426.725 425.978
Pd 426.335 425.076 427.93
Pd 425.866 427.703 427.155
Pd 427.113 429.158 425.39
Pd 429.471 430.213 426.325
Pd 428.111 428.669 428.095
Pd 427.028 430.983 427.403
Pd 428.625 432.719 425.487
Pd 431.144 433.565 426.183
Pd 429.549 431.981 428.064
Pd 428.699 434.482 427.378
Pd 429.773 435.76 425.328
Pd 421.263 408.068 428.173
Pd 422.882 409.581 426.293
Pd 425.357 410.534 427.281
Pd 423.692 409.27 428.956
Pd 422.85 411.664 428.273
Pd 424.265 413.064 426.594
Pd 426.771 414.168 427.559
Pd 425.195 412.553 429.035
Pd 424.398 415.158 428.372
Pd 425.705 416.733 426.764
Pd 427.908 418.018 427.745
Pd 426.671 416.65 429.467
Pd 425.699 418.936 428.624
Pd 427.111 420.472 426.77
Pd 429.575 421.596 427.783
Pd 428.05 420.071 429.467
Pd 427.18 422.619 428.497
Pd 428.69 424.07 426.865
Pd 431.212 425.244 427.757
Pd 429.718 423.626 429.393
Pd 428.9 426.203 428.567
Pd 430.357 427.835 426.958
Pd 432.891 428.704 427.733
Pd 431.258 427.286 429.389
Pd 430.667 429.842 428.745
Pd 432.002 431.065 426.924
Pd 425.993 410.298 429.787
Pd 427.611 411.639 427.939
Pd 429.834 412.627 428.855
Pd 428.272 411.278 430.559
Pd 427.567 413.893 430.015
Pd 429.183 415.597 428.423
Pd 431.431 416.365 429.113
Pd 429.901 414.858 430.723
Pd 429.123 417.508 430.341
Pd 430.584 419.063 428.533
Pd 433.01 420.147 429.181
Pd 431.49 418.487 430.792
Pd 430.723 421.108 430.256
Pd 432.108 422.845 428.542
Pd 434.358 423.773 429.095
Pd 433.043 422.396 431.087
Pd 432.11 424.927 430.217
Pd 433.759 426.209 428.5
Pd 430.811 412.575 431.535
Pd 432.246 413.8 430.044
Pd 434.628 415.271 430.742
Pd 433.057 413.574 432.64
Pd 432.178 416.093 431.475
Pd 433.847 417.68 429.956
Pd 435.942 418.638 430.992
Pd 434.63 417.292 432.72
Pd 433.797 419.818 431.632
Pd 435.503 421.357 430.073
Pd 435.103 414.841 433.041
Pd 436.861 416.278 431.804
Pd 407.459 426.765 421.538
Pd 406.451 429.336 421.084
Pd 408.782 430.336 421.676
Pd 407.297 428.813 423.355
Pd 406.425 431.311 422.888
Pd 408.533 432.58 423.582
Pd 408.834 421.751 423.17
Pd 407.959 424.212 422.117
Pd 410.138 425.268 423.159
Pd 408.591 423.789 424.838
Pd 407.885 426.339 424.178
Pd 409.689 427.867 422.365
Pd 411.94 429.112 423.183
Pd 410.193 427.482 425.075
Pd 409.395 430.073 424.217
Pd 411.086 431.427 422.485
Pd 413.366 432.773 423.183
Pd 411.69 431.277 424.823
Pd 410.969 433.628 424.211
Pd 413.282 434.744 425.103
Pd 410.454 416.746 424.639
Pd 409.656 419.15 424
Pd 412.138 420.68 424.737
Pd 410.636 418.911 426.144
Pd 409.66 421.23 425.741
Pd 410.945 423.007 424.024
Pd 413.583 424.104 424.738
Pd 412.159 422.738 426.467
Pd 411.032 425.117 425.713
Pd 412.677 426.572 423.985
Pd 415.069 427.612 424.855
Pd 413.475 426.052 426.566
Pd 412.55 428.643 425.733
Pd 414.175 430.187 423.981
Pd 416.588 431.31 424.813
Pd 415.18 429.661 426.626
Pd 414.175 432.144 425.703
Pd 415.736 433.706 423.827
Pd 417.983 434.599 425.134
Pd 416.489 433.365 426.696
Pd 415.664 435.639 425.744
Pd 417.802 436.841 426.532
Pd 412.072 412.086 425.983
Pd 411.658 414.453 425.204
Pd 414.08 415.447 426.236
Pd 412.339 413.829 427.791
Pd 411.615 416.435 426.933
Pd 413.015 417.959 425.261
Pd 415.56 419.123 426.192
Pd 413.965 417.489 427.907
Pd 413.124 419.919 427.125
Pd 414.59 421.475 425.477
Pd 416.823 422.654 426.31
Pd 415.418 421.138 428.059
Pd 414.571 423.75 427.25
Pd 416.065 425.2 425.755
Pd 418.411 426.276 426.475
Pd 416.877 424.728 428.258
Pd 415.972 427.121 427.458
Pd 417.676 428.636 425.606
Pd 420.056 429.839 426.634
Pd 418.447 428.343 428.076
Pd 417.612 430.726 427.584
Pd 418.971 432.173 425.82
Pd 421.299 433.509 426.617
Pd 419.951 431.843 428.379
Pd 418.896 434.214 427.608
Pd 420.273 435.698 425.721
Pd 422.87 436.8 426.57
Pd 421.296 435.661 428.295
Pd 420.159 437.781 427.573
Pd 422.601 438.828 428.146
Pd 414.073 407.007 427.477
Pd 413.24 409.73 426.741
Pd 415.658 410.43 427.819
Pd 414.345 408.809 429.554
Pd 413.299 411.308 428.686
Pd 414.594 412.841 426.935
Pd 416.916 414.008 427.908
Pd 415.349 412.744 429.692
Pd 414.604 415.085 428.934
Pd 416.313 416.61 426.953
Pd 418.673 417.74 427.841
Pd 417.023 416.242 429.451
Pd 416.31 418.674 428.751
Pd 417.851 420.253 427.08
Pd 420.149 421.298 427.791
Pd 418.739 419.614 429.689
Pd 417.994 422.23 429.131
Pd 419.214 423.796 427.169
Pd 421.82 425.016 428.161
Pd 420.061 423.341 429.888
Pd 419.386 425.923 429.138
Pd 420.823 427.379 427.296
Pd 423.344 428.561 428.041
Pd 421.799 426.927 429.878
Pd 420.913 429.357 429.139
Pd 422.314 431.1 427.393
Pd 424.748 432.191 428.194
Pd 423.103 430.795 429.989
Pd 422.153 433.112 429.1
Pd 423.733 434.457 427.372
Pd 426.265 435.505 427.996
Pd 424.715 434.181 429.9
Pd 423.727 436.499 429.316
Pd 425.144 437.897 427.488
Pd 415.156 404.705 428.295
Pd 417.606 405.664 429.105
Pd 416.322 404.133 430.797
Pd 414.794 406.421 430.152
Pd 416.543 407.865 428.345
Pd 418.932 409.129 429.12
Pd 417.267 407.56 431.074
Pd 416.553 410.146 430.183
Pd 417.932 411.733 428.471
Pd 420.453 412.739 429.201
Pd 418.799 411.37 431.067
Pd 418.005 413.837 430.229
Pd 419.536 415.295 428.358
Pd 421.805 416.379 429.329
Pd 420.552 414.62 431.067
Pd 419.525 417.262 430.35
Pd 421.18 418.853 428.594
Pd 423.432 419.94 429.568
Pd 421.851 418.253 431.321
Pd 421.062 420.862 430.568
Pd 422.387 422.325 428.929
Pd 424.991 423.589 429.624
Pd 423.473 422.134 431.486
Pd 422.679 424.468 430.647
Pd 424.197 426.184 428.98
Pd 426.411 427.154 429.792
Pd 425.18 425.649 431.453
Pd 423.931 428.173 430.691
Pd 425.586 429.777 429.253
Pd 428.169 430.704 430.204
Pd 426.471 429.13 431.399
Pd 425.556 431.83 430.851
Pd 427.205 432.949 428.822
Pd 418.367 405.417 431.734
Pd 419.851 406.611 429.779
Pd 422.222 407.792 430.57
Pd 420.743 406.408 432.394
Pd 419.699 408.722 431.568
Pd 421.257 410.269 429.984
Pd 423.725 411.341 430.809
Pd 422.037 409.737 432.562
Pd 421.194 412.157 431.711
Pd 422.735 413.731 430.011
Pd 425.123 414.757 430.825
Pd 423.543 413.314 432.621
Pd 422.879 415.782 431.872
Pd 424.192 417.418 430.107
Pd 426.955 418.49 431.218
Pd 425.234 416.777 432.73
Pd 424.493 419.519 432.176
Pd 425.672 421.067 430.699
Pd 428.341 422.063 431.229
Pd 426.866 420.673 432.907
Pd 425.89 423.056 432.274
Pd 427.407 424.721 430.411
Pd 429.686 425.692 431.06
Pd 428.201 424.344 432.916
Pd 427.555 426.711 432.101
Pd 428.894 428.197 430.67
Pd 423.288 407.379 433.262
Pd 424.5 408.523 431.436
Pd 426.768 409.927 432.322
Pd 425.374 408.302 434.176
Pd 424.427 410.829 433.328
Pd 426.041 412.434 431.688
Pd 428.386 413.412 432.479
Pd 426.769 411.899 434.191
Pd 425.824 414.207 433.454
Pd 427.416 415.946 431.934
Pd 429.913 417.133 432.861
Pd 428.247 415.299 434.333
Pd 427.676 418.067 433.701
Pd 429.383 419.77 431.928
Pd 431.575 420.776 432.894
Pd 429.934 419.27 434.459
Pd 429.375 421.906 433.63
Pd 430.642 423.165 431.736
Pd 427.627 409.35 435.088
Pd 429.062 411.001 433.246
Pd 431.63 412.142 434.21
Pd 430.32 410.534 435.825
Pd 429.277 412.916 435.146
Pd 430.646 414.44 433.332
Pd 432.986 415.948 434.056
Pd 431.526 414.377 435.774
Pd 430.419 416.719 435.397
Pd 432.176 418.495 433.314
Pd 432.193 411.923 436.816
Pd 433.827 413.704 435.015
Pd 407.147 430.789 425.315
Pd 406.363 433.285 424.59
Pd 408.755 434.572 425.47
Pd 406.913 432.756 426.994
Pd 406.577 435.269 426.543
Pd 408.592 436.668 426.951
Pd 408.691 425.991 426.576
Pd 407.694 428.357 426.086
Pd 410.224 429.446 426.791
Pd 408.896 427.854 428.53
Pd 407.967 430.324 427.86
Pd 409.383 431.926 426.06
Pd 411.842 433.097 426.651
Pd 410.377 431.528 428.647
Pd 409.271 434.01 427.737
Pd 410.977 435.661 425.77
Pd 413.294 436.667 426.711
Pd 411.747 435.142 428.297
Pd 411.036 437.519 427.61
Pd 413.405 438.734 428.681
Pd 410.765 420.972 428.139
Pd 409.754 423.521 427.295
Pd 412.17 424.666 428.18
Pd 410.481 422.971 429.926
Pd 409.572 425.346 429.256
Pd 411.121 426.972 427.422
Pd 413.539 428.154 428.278
Pd 411.898 426.781 429.996
Pd 411.167 429.199 429.261
Pd 412.693 430.573 427.446
Pd 415.232 431.706 428.383
Pd 413.777 430.281 430.116
Pd 412.852 432.528 429.262
Pd 414.017 434.258 427.532
Pd 416.641 435.194 428.344
Pd 414.934 433.803 430.213
Pd 414.245 436.145 429.163
Pd 415.736 438.018 427.535
Pd 417.997 438.709 428.797
Pd 416.544 437.222 430.381
Pd 415.688 439.598 429.543
Pd 418.015 440.968 430.296
Pd 412.19 415.939 429.579
Pd 411.628 418.516 428.752
Pd 413.82 419.567 429.651
Pd 412.302 417.931 431.417
Pd 411.438 420.244 430.745
Pd 412.802 422.004 429.16
Pd 415.312 423.038 429.775
Pd 413.92 421.499 431.634
Pd 412.878 424.175 430.775
Pd 414.4 425.758 429.151
Pd 417.112 426.813 429.836
Pd 415.349 425.4 431.639
Pd 414.775 427.805 430.786
Pd 416.059 429.244 429.133
Pd 418.322 430.361 430.181
Pd 416.868 428.862 431.743
Pd 415.932 431.202 430.992
Pd 417.649 432.948 429.186
Pd 419.707 434.113 430.19
Pd 418.512 432.471 431.982
Pd 417.34 434.835 430.979
Pd 418.852 436.499 429.324
Pd 421.275 437.492 430.166
Pd 419.629 436.186 431.932
Pd 418.875 438.577 431.291
Pd 420.443 439.702 429.31
Pd 414.064 410.705 431.16
Pd 413.036 413.511 430.353
Pd 415.567 414.604 431.394
Pd 414.186 413.21 433.029
Pd 413.267 415.508 432.02
Pd 414.665 417.059 430.347
Pd 417.12 418.308 431.38
Pd 415.627 416.646 433.068
Pd 414.767 418.917 432.272
Pd 416.24 420.808 430.496
Pd 418.563 421.786 431.45
Pd 417.115 420.334 433.162
Pd 416.267 422.697 432.406
Pd 417.66 424.307 430.758
Pd 420.365 425.491 431.557
Pd 418.844 423.949 433.421
Pd 417.797 426.493 432.493
Pd 419.29 427.937 430.835
Pd 421.715 429.064 431.709
Pd 420.204 427.561 433.456
Pd 419.214 429.942 432.762
Pd 420.655 431.356 431.094
Pd 422.901 432.786 431.544
Pd 421.609 431.142 433.578
Pd 420.73 433.719 432.707
Pd 422.141 435.126 431.141
Pd 415.986 405.86 432.515
Pd 415.008 408.316 432.12
Pd 417.307 409.805 432.71
Pd 415.905 408.399 434.616
Pd 414.897 410.717 433.736
Pd 416.413 412.227 431.908
Pd 418.81 413.222 432.769
Pd 417.313 411.782 434.468
Pd 416.614 414.367 433.83
Pd 418.091 415.865 432.059
Pd 420.304 416.829 432.887
Pd 418.967 415.494 434.674
Pd 417.984 417.889 433.916
Pd 419.451 419.339 432.276
Pd 421.971 420.398 433.045
Pd 420.545 418.864 434.811
Pd 419.774 421.488 433.986
Pd 421.128 422.91 432.153
Pd 423.812 424.306 433.255
Pd 422.025 422.592 434.942
Pd 421.368 424.977 434.186
Pd 422.77 426.628 432.479
Pd 424.878 427.737 433.256
Pd 423.566 426.134 435.09
Pd 422.55 428.735 434.204
Pd 424.032 430.285 432.309
Pd 416.857 403.635 433.321
Pd 419.125 404.918 434.083
Pd 417.793 403.266 435.758
Pd 416.573 405.77 435.165
Pd 418.083 407.465 433.528
Pd 420.515 408.146 434.111
Pd 418.852 406.773 436.044
Pd 418.179 409.295 435.267
Pd 419.673 410.618 433.54
Pd 421.944 411.929 434.373
Pd 420.806 410.204 436.284
Pd 419.843 412.859 435.256
Pd 421.254 414.314 433.663
Pd 423.546 415.402 434.501
Pd 422.07 413.863 436.333
Pd 421.333 416.292 435.436
Pd 422.929 417.923 433.749
Pd 425.311 418.823 434.574
Pd 423.498 417.655 436.316
Pd 422.852 420.15 435.657
Pd 424.394 421.553 433.879
Pd 426.656 422.721 434.591
Pd 425.075 421.143 436.365
Pd 424.44 423.707 435.791
Pd 425.867 425.537 434.098
Pd 419.9 404.649 436.571
Pd 421.522 406.05 434.945
Pd 423.728 406.875 435.901
Pd 422.217 405.287 437.557
Pd 421.221 407.754 436.876
Pd 422.973 409.404 435.125
Pd 425.271 410.453 436.116
Pd 423.682 408.953 437.733
Pd 422.976 411.391 437.163
Pd 424.215 412.854 435.118
Pd 426.681 413.962 435.998
Pd 425.238 412.562 437.794
Pd 424.448 415.193 437.174
Pd 426.051 416.61 435.445
Pd 428.214 417.807 436.169
Pd 426.938 415.986 437.731
Pd 425.921 418.665 437.193
Pd 427.676 420.291 435.261
Pd 424.451 406.462 438.464
Pd 426.135 408.022 436.844
Pd 428.64 409.01 437.543
Pd 428.361 406.702 436.567
Pd 426.183 409.988 438.621
Pd 427.518 411.496 436.879
Pd 429.922 412.576 437.586
Pd 428.464 411.138 439.188
Pd 427.606 413.484 438.486
Pd 429.126 414.936 436.696
Pd 429.276 408.839 439.955
Pd 430.899 410.151 438.395
Pd 406.802 434.534 429.035
Pd 406.714 437.159 428.666
Pd 408.937 438.614 428.987
Pd 406.743 436.395 431.037
Pd 407.139 438.926 430.741
Pd 409.391 440.555 431.373
Pd 408.752 429.768 430.334
Pd 408.116 432.303 429.504
Pd 410.483 433.665 430.248
Pd 408.768 431.823 432.095
Pd 407.995 434.168 431.597
Pd 409.139 435.891 429.474
Pd 411.539 437.178 430.238
Pd 410.111 435.555 432.181
Pd 409.233 437.874 431.591
Pd 411.236 439.804 429.798
Pd 413.55 440.49 430.418
Pd 411.585 438.916 432.234
Pd 411.667 441.476 432.072
Pd 413.895 442.533 432.714
Pd 410.621 425.127 431.722
Pd 409.727 427.302 431.089
Pd 412.206 428.685 431.882
Pd 410.71 427.093 433.634
Pd 409.55 429.287 433.063
Pd 411.147 431.069 431.078
Pd 413.33 432.353 431.868
Pd 411.995 430.49 433.779
Pd 411.149 433.336 432.93
Pd 412.66 434.948 431.05
Pd 415.035 435.627 432.188
Pd 413.452 434.194 433.794
Pd 412.494 436.778 433.112
Pd 413.988 437.88 431.054
Pd 416.369 439.325 432.039
Pd 415.026 437.827 434.041
Pd 413.842 439.966 432.996
Pd 415.776 441.721 431.44
Pd 412.267 419.91 433.086
Pd 411.407 422.494 432.369
Pd 413.877 423.629 433.391
Pd 412.157 422.097 434.972
Pd 411.458 424.591 434.266
Pd 413.074 426.253 432.58
Pd 415.434 427.443 433.604
Pd 413.813 425.729 435.182
Pd 412.947 428.414 434.516
Pd 414.608 429.901 432.798
Pd 416.882 430.889 433.68
Pd 415.231 429.283 435.481
Pd 414.442 431.867 434.727
Pd 415.813 433.102 432.861
Pd 418.255 434.329 433.605
Pd 416.789 432.846 435.653
Pd 415.805 435.175 434.69
Pd 417.109 436.885 433.043
Pd 414.126 415.175 434.578
Pd 413.04 417.424 433.856
Pd 415.577 418.8 434.709
Pd 414.075 417.054 436.219
Pd 413.286 419.418 435.552
Pd 414.719 421.219 434.139
Pd 417.204 422.545 435.075
Pd 415.658 420.713 436.534
Pd 414.921 423.389 435.758
Pd 416.385 424.758 434.173
Pd 418.619 426 435.089
Pd 417.189 424.484 436.799
Pd 416.104 426.712 436.105
Pd 417.731 428.439 434.242
Pd 420.067 429.515 435.253
Pd 418.574 427.926 436.872
Pd 417.677 430.339 436.046
Pd 419.328 431.971 434.455
Pd 415.893 410.438 436.148
Pd 415.135 412.821 435.51
Pd 417.51 413.684 436.38
Pd 415.794 412.213 438.182
Pd 415.145 414.831 437.052
Pd 416.523 416.215 435.566
Pd 418.949 417.451 436.476
Pd 417.546 415.872 438.127
Pd 416.367 418.23 437.154
Pd 418.037 419.989 435.714
Pd 420.658 421.157 436.818
Pd 418.93 419.476 438.336
Pd 418.075 421.983 437.415
Pd 419.625 423.678 435.947
Pd 422.054 424.58 436.725
Pd 420.567 423.146 438.487
Pd 419.634 425.66 437.69
Pd 421.033 427.055 435.846
Pd 417.364 405.1 437.537
Pd 416.693 407.553 437.118
Pd 419.071 408.817 438.07
Pd 417.328 407.234 439.645
Pd 416.472 409.781 438.83
Pd 417.966 411.25 437.245
Pd 420.57 412.262 438.059
Pd 419.185 410.854 439.714
Pd 418.148 413.416 439.089
Pd 419.883 414.84 437.262
Pd 422.144 416.244 438.085
Pd 420.72 414.44 439.773
Pd 419.706 416.94 439.076
Pd 421.35 418.709 437.326
Pd 423.536 419.592 438.262
Pd 422.265 418.011 439.794
Pd 421.346 420.631 439.403
Pd 422.854 422.151 437.523
Pd 418.516 403.005 438.207
Pd 420.787 403.83 439.137
Pd 419.76 402.416 434.755
Pd 418.083 404.797 440.014
Pd 419.793 406.389 438.594
Pd 422.286 407.309 439.669
Pd 420.554 405.601 441.304
Pd 419.819 408.326 440.368
Pd 421.465 409.923 438.924
Pd 423.994 411.147 439.606
Pd 422.582 409.386 441.274
Pd 421.485 411.957 440.584
Pd 422.843 413.474 438.792
Pd 425.554 414.748 439.621
Pd 424.157 413.376 441.15
Pd 423.058 415.583 440.486
Pd 424.427 417.038 438.808
Pd 423.039 402.948 438.068
Pd 423.105 404.927 440.096
Pd 425.779 406.021 440.663
Pd 425.111 403.792 439.449
Pd 423.566 406.716 442.092
Pd 424.737 408.555 440.123
Pd 427.234 409.577 441.074
Pd 425.974 407.812 442.469
Pd 424.96 410.509 441.895
Pd 426.26 412.214 440.589
Pd 426.694 405.333 437.892
Pd 427.302 407.406 439.209
Pd 407.672 438.811 433.398
Pd 416.578 434.822 437.359
Pd 415.606 437.476 436.675
Pd 412.511 441.305 434.875
Pd 414.54 439.959 435.649
Pd 418.004 436.39 435.451
Pd 408.619 433.781 434.137
Pd 407.643 436.106 433.368
Pd 410.009 437.456 434.107
Pd 408.613 435.972 435.898
Pd 408.416 438.686 435.862
Pd 410.019 440.193 433.902
Pd 418.268 440.53 433.033
Pd 410.746 439.807 436.623
Pd 419.365 438.082 433.808
Pd 415.932 441.282 434.012
Pd 410.51 428.947 435.511
Pd 409.597 431.428 434.655
Pd 411.781 432.588 435.563
Pd 410.39 430.912 437.129
Pd 409.611 433.717 436.657
Pd 410.892 434.939 434.757
Pd 413.226 436.404 435.519
Pd 413.893 436.232 438.042
Pd 412.868 438.442 437.435
Pd 412.124 438.765 434.957
Pd 412.361 423.981 436.694
Pd 411.226 426.467 436.195
Pd 413.709 427.681 437.234
Pd 412.319 425.767 438.344
Pd 411.236 428.328 437.857
Pd 412.813 430.315 436.554
Pd 415.271 431.432 437.305
Pd 414.22 429.855 438.946
Pd 413.119 432.484 437.921
Pd 414.092 434.086 436.46
Pd 414.154 419.285 438.032
Pd 413.368 421.595 437.211
Pd 415.782 422.771 438.448
Pd 414.198 421.297 439.88
Pd 413.05 423.467 439.148
Pd 414.769 425.22 437.769
Pd 417.257 426.34 438.56
Pd 415.81 425.032 440.355
Pd 414.803 427.299 439.461
Pd 416.467 429.124 438.082
Pd 415.877 414.319 439.614
Pd 415.08 416.822 438.733
Pd 417.317 417.921 439.932
Pd 415.801 416.216 441.491
Pd 414.945 418.782 440.736
Pd 416.549 420.248 439.158
Pd 418.853 421.402 440.039
Pd 417.362 419.956 441.771
Pd 416.75 422.294 441.145
Pd 418.313 423.831 439.236
Pd 417.422 409.373 441.444
Pd 416.973 411.734 440.419
Pd 419.047 413.055 441.644
Pd 417.64 411.457 442.943
Pd 416.812 413.968 442.415
Pd 418.116 415.63 440.753
Pd 420.638 416.573 441.394
Pd 419.43 415.095 443.276
Pd 418.558 417.553 442.389
Pd 419.795 418.909 440.786
Pd 420.659 402.16 437.235
Pd 418.208 406.501 441.888
Pd 421.128 407.668 442.653
Pd 422.313 404.813 443.246
Pd 418.716 408.272 443.326
Pd 420.11 410.316 442.145
Pd 422.627 411.609 442.789
Pd 421.53 409.852 444.419
Pd 420.532 412.715 443.793
Pd 421.697 414.224 442.298
Pd 419.326 403.015 432.151
Pd 423.905 404.942 434.049
Pd 422.966 405.516 431.329
Pd 421.66 403.922 432.948
Pd 422.234 406.648 444.904
Pd 424.601 404.297 442.256
Pd 424.769 404.414 436.52
Pd 424.861 406.113 444.073
Pd 423.787 408.882 443.629
Pd 425.436 406.27 432.351
Pd 419.87 405.976 443.924
Pd 417.005 439.076 434.947
Pd 420.255 435.437 434.478
Pd 410.83 437.17 436.838
Pd 418.694 433.978 436.282
Pd 410.742 432.751 438.715
Pd 411.74 434.799 437.128
Pd 412.409 427.94 439.988
Pd 411.498 430.362 439.295
Pd 414.342 423.371 441.542
Pd 413.114 425.606 440.805
Pd 416.116 418.406 443.079
Pd 414.836 420.862 442.193
Pd 418.118 413.426 444.515
Pd 416.991 415.989 443.726
Pd 420.175 407.919 445.382
Pd 419.063 410.429 444.774
Pd 420.723 404.205 430.59
Pd 422.165 403.429 435.52
Pd 426.397 406.087 435.218
