969

Pd 404.0650 404.0650 404.0650
Pd 406.0975 406.0975 404.0650
Pd 406.0975 404.0650 406.0975
Pd 404.0650 406.0975 406.0975
Pd 406.0975 408.1300 406.0975
Pd 408.1300 406.0975 406.0975
Pd 408.1300 408.1300 404.0650
Pd 410.1625 410.1625 404.0650
Pd 410.1625 408.1300 406.0975
Pd 408.1300 410.1625 406.0975
Pd 410.1625 412.1950 406.0975
Pd 412.1950 410.1625 406.0975
Pd 412.1950 412.1950 404.0650
Pd 414.2275 414.2275 404.0650
Pd 414.2275 412.1950 406.0975
Pd 412.1950 414.2275 406.0975
Pd 414.2275 416.2600 406.0975
Pd 416.2600 414.2275 406.0975
Pd 416.2600 416.2600 404.0650
Pd 418.2925 418.2925 404.0650
Pd 418.2925 416.2600 406.0975
Pd 416.2600 418.2925 406.0975
Pd 418.2925 420.3250 406.0975
Pd 420.3250 418.2925 406.0975
Pd 420.3250 420.3250 404.0650
Pd 422.3575 422.3575 404.0650
Pd 422.3575 420.3250 406.0975
Pd 420.3250 422.3575 406.0975
Pd 422.3575 424.3900 406.0975
Pd 424.3900 422.3575 406.0975
Pd 424.3900 424.3900 404.0650
Pd 426.4225 426.4225 404.0650
Pd 426.4225 424.3900 406.0975
Pd 424.3900 426.4225 406.0975
Pd 426.4225 428.4550 406.0975
Pd 428.4550 426.4225 406.0975
Pd 428.4550 428.4550 404.0650
Pd 430.4875 430.4875 404.0650
Pd 430.4875 428.4550 406.0975
Pd 428.4550 430.4875 406.0975
Pd 430.4875 432.5200 406.0975
Pd 432.5200 430.4875 406.0975
Pd 432.5200 432.5200 404.0650
Pd 434.5525 434.5525 404.0650
Pd 434.5525 432.5200 406.0975
Pd 432.5200 434.5525 406.0975
Pd 434.5525 436.5850 406.0975
Pd 436.5850 434.5525 406.0975
Pd 436.5850 436.5850 404.0650
Pd 406.0975 406.0975 408.1300
Pd 404.0650 408.1300 408.1300
Pd 406.0975 410.1625 408.1300
Pd 406.0975 408.1300 410.1625
Pd 404.0650 410.1625 410.1625
Pd 406.0975 412.1950 410.1625
Pd 408.1300 404.0650 408.1300
Pd 410.1625 406.0975 408.1300
Pd 410.1625 404.0650 410.1625
Pd 408.1300 406.0975 410.1625
Pd 408.1300 408.1300 408.1300
Pd 410.1625 410.1625 408.1300
Pd 410.1625 408.1300 410.1625
Pd 408.1300 410.1625 410.1625
Pd 408.1300 412.1950 408.1300
Pd 410.1625 414.2275 408.1300
Pd 410.1625 412.1950 410.1625
Pd 408.1300 414.2275 410.1625
Pd 410.1625 416.2600 410.1625
Pd 412.1950 406.0975 410.1625
Pd 412.1950 408.1300 408.1300
Pd 414.2275 410.1625 408.1300
Pd 414.2275 408.1300 410.1625
Pd 412.1950 410.1625 410.1625
Pd 412.1950 412.1950 408.1300
Pd 414.2275 414.2275 408.1300
Pd 414.2275 412.1950 410.1625
Pd 412.1950 414.2275 410.1625
Pd 412.1950 416.2600 408.1300
Pd 414.2275 418.2925 408.1300
Pd 414.2275 416.2600 410.1625
Pd 412.1950 418.2925 410.1625
Pd 414.2275 420.3250 410.1625
Pd 416.2600 410.1625 410.1625
Pd 416.2600 412.1950 408.1300
Pd 418.2925 414.2275 408.1300
Pd 418.2925 412.1950 410.1625
Pd 416.2600 414.2275 410.1625
Pd 416.2600 416.2600 408.1300
Pd 418.2925 418.2925 408.1300
Pd 418.2925 416.2600 410.1625
Pd 416.2600 418.2925 410.1625
Pd 416.2600 420.3250 408.1300
Pd 418.2925 422.3575 408.1300
Pd 418.2925 420.3250 410.1625
Pd 416.2600 422.3575 410.1625
Pd 418.2925 424.3900 410.1625
Pd 420.3250 414.2275 410.1625
Pd 420.3250 416.2600 408.1300
Pd 422.3575 418.2925 408.1300
Pd 422.3575 416.2600 410.1625
Pd 420.3250 418.2925 410.1625
Pd 420.3250 420.3250 408.1300
Pd 422.3575 422.3575 408.1300
Pd 422.3575 420.3250 410.1625
Pd 420.3250 422.3575 410.1625
Pd 420.3250 424.3900 408.1300
Pd 422.3575 426.4225 408.1300
Pd 422.3575 424.3900 410.1625
Pd 420.3250 426.4225 410.1625
Pd 422.3575 428.4550 410.1625
Pd 424.3900 418.2925 410.1625
Pd 424.3900 420.3250 408.1300
Pd 426.4225 422.3575 408.1300
Pd 426.4225 420.3250 410.1625
Pd 424.3900 422.3575 410.1625
Pd 424.3900 424.3900 408.1300
Pd 426.4225 426.4225 408.1300
Pd 426.4225 424.3900 410.1625
Pd 424.3900 426.4225 410.1625
Pd 424.3900 428.4550 408.1300
Pd 426.4225 430.4875 408.1300
Pd 426.4225 428.4550 410.1625
Pd 424.3900 430.4875 410.1625
Pd 426.4225 432.5200 410.1625
Pd 428.4550 422.3575 410.1625
Pd 428.4550 424.3900 408.1300
Pd 430.4875 426.4225 408.1300
Pd 430.4875 424.3900 410.1625
Pd 428.4550 426.4225 410.1625
Pd 428.4550 428.4550 408.1300
Pd 430.4875 430.4875 408.1300
Pd 430.4875 428.4550 410.1625
Pd 428.4550 430.4875 410.1625
Pd 428.4550 432.5200 408.1300
Pd 430.4875 434.5525 408.1300
Pd 430.4875 432.5200 410.1625
Pd 428.4550 434.5525 410.1625
Pd 430.4875 436.5850 410.1625
Pd 432.5200 426.4225 410.1625
Pd 432.5200 428.4550 408.1300
Pd 434.5525 430.4875 408.1300
Pd 434.5525 428.4550 410.1625
Pd 432.5200 430.4875 410.1625
Pd 432.5200 432.5200 408.1300
Pd 434.5525 434.5525 408.1300
Pd 434.5525 432.5200 410.1625
Pd 432.5200 434.5525 410.1625
Pd 432.5200 436.5850 408.1300
Pd 436.5850 430.4875 410.1625
Pd 436.5850 432.5200 408.1300
Pd 406.0975 410.1625 412.1950
Pd 404.0650 412.1950 412.1950
Pd 406.0975 414.2275 412.1950
Pd 406.0975 412.1950 414.2275
Pd 404.0650 414.2275 414.2275
Pd 406.0975 416.2600 414.2275
Pd 410.1625 406.0975 412.1950
Pd 408.1300 408.1300 412.1950
Pd 410.1625 410.1625 412.1950
Pd 410.1625 408.1300 414.2275
Pd 408.1300 410.1625 414.2275
Pd 408.1300 412.1950 412.1950
Pd 410.1625 414.2275 412.1950
Pd 410.1625 412.1950 414.2275
Pd 408.1300 414.2275 414.2275
Pd 408.1300 416.2600 412.1950
Pd 410.1625 418.2925 412.1950
Pd 410.1625 416.2600 414.2275
Pd 408.1300 418.2925 414.2275
Pd 410.1625 420.3250 414.2275
Pd 412.1950 404.0650 412.1950
Pd 414.2275 406.0975 412.1950
Pd 414.2275 404.0650 414.2275
Pd 412.1950 406.0975 414.2275
Pd 412.1950 408.1300 412.1950
Pd 414.2275 410.1625 412.1950
Pd 414.2275 408.1300 414.2275
Pd 412.1950 410.1625 414.2275
Pd 412.1950 412.1950 412.1950
Pd 414.2275 414.2275 412.1950
Pd 414.2275 412.1950 414.2275
Pd 412.1950 414.2275 414.2275
Pd 412.1950 416.2600 412.1950
Pd 414.2275 418.2925 412.1950
Pd 414.2275 416.2600 414.2275
Pd 412.1950 418.2925 414.2275
Pd 412.1950 420.3250 412.1950
Pd 414.2275 422.3575 412.1950
Pd 414.2275 420.3250 414.2275
Pd 412.1950 422.3575 414.2275
Pd 414.2275 424.3900 414.2275
Pd 416.2600 406.0975 414.2275
Pd 416.2600 408.1300 412.1950
Pd 418.2925 410.1625 412.1950
Pd 418.2925 408.1300 414.2275
Pd 416.2600 410.1625 414.2275
Pd 416.2600 412.1950 412.1950
Pd 418.2925 414.2275 412.1950
Pd 418.2925 412.1950 414.2275
Pd 416.2600 414.2275 414.2275
Pd 416.2600 416.2600 412.1950
Pd 418.2925 418.2925 412.1950
Pd 418.2925 416.2600 414.2275
Pd 416.2600 418.2925 414.2275
Pd 416.2600 420.3250 412.1950
Pd 418.2925 422.3575 412.1950
Pd 418.2925 420.3250 414.2275
Pd 416.2600 422.3575 414.2275
Pd 416.2600 424.3900 412.1950
Pd 418.2925 426.4225 412.1950
Pd 418.2925 424.3900 414.2275
Pd 416.2600 426.4225 414.2275
Pd 418.2925 428.4550 414.2275
Pd 420.3250 410.1625 414.2275
Pd 420.3250 412.1950 412.1950
Pd 422.3575 414.2275 412.1950
Pd 422.3575 412.1950 414.2275
Pd 420.3250 414.2275 414.2275
Pd 420.3250 416.2600 412.1950
Pd 422.3575 418.2925 412.1950
Pd 422.3575 416.2600 414.2275
Pd 420.3250 418.2925 414.2275
Pd 420.3250 420.3250 412.1950
Pd 422.3575 422.3575 412.1950
Pd 422.3575 420.3250 414.2275
Pd 420.3250 422.3575 414.2275
Pd 420.3250 424.3900 412.1950
Pd 422.3575 426.4225 412.1950
Pd 422.3575 424.3900 414.2275
Pd 420.3250 426.4225 414.2275
Pd 420.3250 428.4550 412.1950
Pd 422.3575 430.4875 412.1950
Pd 422.3575 428.4550 414.2275
Pd 420.3250 430.4875 414.2275
Pd 422.3575 432.5200 414.2275
Pd 424.3900 414.2275 414.2275
Pd 424.3900 416.2600 412.1950
Pd 426.4225 418.2925 412.1950
Pd 426.4225 416.2600 414.2275
Pd 424.3900 418.2925 414.2275
Pd 424.3900 420.3250 412.1950
Pd 426.4225 422.3575 412.1950
Pd 426.4225 420.3250 414.2275
Pd 424.3900 422.3575 414.2275
Pd 424.3900 424.3900 412.1950
Pd 426.4225 426.4225 412.1950
Pd 426.4225 424.3900 414.2275
Pd 424.3900 426.4225 414.2275
Pd 424.3900 428.4550 412.1950
Pd 426.4225 430.4875 412.1950
Pd 426.4225 428.4550 414.2275
Pd 424.3900 430.4875 414.2275
Pd 424.3900 432.5200 412.1950
Pd 426.4225 434.5525 412.1950
Pd 426.4225 432.5200 414.2275
Pd 424.3900 434.5525 414.2275
Pd 426.4225 436.5850 414.2275
Pd 428.4550 418.2925 414.2275
Pd 428.4550 420.3250 412.1950
Pd 430.4875 422.3575 412.1950
Pd 430.4875 420.3250 414.2275
Pd 428.4550 422.3575 414.2275
Pd 428.4550 424.3900 412.1950
Pd 430.4875 426.4225 412.1950
Pd 430.4875 424.3900 414.2275
Pd 428.4550 426.4225 414.2275
Pd 428.4550 428.4550 412.1950
Pd 430.4875 430.4875 412.1950
Pd 430.4875 428.4550 414.2275
Pd 428.4550 430.4875 414.2275
Pd 428.4550 432.5200 412.1950
Pd 430.4875 434.5525 412.1950
Pd 430.4875 432.5200 414.2275
Pd 428.4550 434.5525 414.2275
Pd 428.4550 436.5850 412.1950
Pd 432.5200 422.3575 414.2275
Pd 432.5200 424.3900 412.1950
Pd 434.5525 426.4225 412.1950
Pd 434.5525 424.3900 414.2275
Pd 432.5200 426.4225 414.2275
Pd 432.5200 428.4550 412.1950
Pd 434.5525 430.4875 412.1950
Pd 434.5525 428.4550 414.2275
Pd 432.5200 430.4875 414.2275
Pd 432.5200 432.5200 412.1950
Pd 436.5850 426.4225 414.2275
Pd 436.5850 428.4550 412.1950
Pd 406.0975 414.2275 416.2600
Pd 404.0650 416.2600 416.2600
Pd 406.0975 418.2925 416.2600
Pd 406.0975 416.2600 418.2925
Pd 404.0650 418.2925 418.2925
Pd 406.0975 420.3250 418.2925
Pd 410.1625 410.1625 416.2600
Pd 408.1300 412.1950 416.2600
Pd 410.1625 414.2275 416.2600
Pd 410.1625 412.1950 418.2925
Pd 408.1300 414.2275 418.2925
Pd 408.1300 416.2600 416.2600
Pd 410.1625 418.2925 416.2600
Pd 410.1625 416.2600 418.2925
Pd 408.1300 418.2925 418.2925
Pd 408.1300 420.3250 416.2600
Pd 410.1625 422.3575 416.2600
Pd 410.1625 420.3250 418.2925
Pd 408.1300 422.3575 418.2925
Pd 410.1625 424.3900 418.2925
Pd 414.2275 406.0975 416.2600
Pd 412.1950 408.1300 416.2600
Pd 414.2275 410.1625 416.2600
Pd 414.2275 408.1300 418.2925
Pd 412.1950 410.1625 418.2925
Pd 412.1950 412.1950 416.2600
Pd 414.2275 414.2275 416.2600
Pd 414.2275 412.1950 418.2925
Pd 412.1950 414.2275 418.2925
Pd 412.1950 416.2600 416.2600
Pd 414.2275 418.2925 416.2600
Pd 414.2275 416.2600 418.2925
Pd 412.1950 418.2925 418.2925
Pd 412.1950 420.3250 416.2600
Pd 414.2275 422.3575 416.2600
Pd 414.2275 420.3250 418.2925
Pd 412.1950 422.3575 418.2925
Pd 412.1950 424.3900 416.2600
Pd 414.2275 426.4225 416.2600
Pd 414.2275 424.3900 418.2925
Pd 412.1950 426.4225 418.2925
Pd 414.2275 428.4550 418.2925
Pd 416.2600 404.0650 416.2600
Pd 418.2925 406.0975 416.2600
Pd 418.2925 404.0650 418.2925
Pd 416.2600 406.0975 418.2925
Pd 416.2600 408.1300 416.2600
Pd 418.2925 410.1625 416.2600
Pd 418.2925 408.1300 418.2925
Pd 416.2600 410.1625 418.2925
Pd 416.2600 412.1950 416.2600
Pd 418.2925 414.2275 416.2600
Pd 418.2925 412.1950 418.2925
Pd 416.2600 414.2275 418.2925
Pd 416.2600 416.2600 416.2600
Pd 418.2925 418.2925 416.2600
Pd 418.2925 416.2600 418.2925
Pd 416.2600 418.2925 418.2925
Pd 416.2600 420.3250 416.2600
Pd 418.2925 422.3575 416.2600
Pd 418.2925 420.3250 418.2925
Pd 416.2600 422.3575 418.2925
Pd 416.2600 424.3900 416.2600
Pd 418.2925 426.4225 416.2600
Pd 418.2925 424.3900 418.2925
Pd 416.2600 426.4225 418.2925
Pd 416.2600 428.4550 416.2600
Pd 418.2925 430.4875 416.2600
Pd 418.2925 428.4550 418.2925
Pd 416.2600 430.4875 418.2925
Pd 418.2925 432.5200 418.2925
Pd 420.3250 406.0975 418.2925
Pd 420.3250 408.1300 416.2600
Pd 422.3575 410.1625 416.2600
Pd 422.3575 408.1300 418.2925
Pd 420.3250 410.1625 418.2925
Pd 420.3250 412.1950 416.2600
Pd 422.3575 414.2275 416.2600
Pd 422.3575 412.1950 418.2925
Pd 420.3250 414.2275 418.2925
Pd 420.3250 416.2600 416.2600
Pd 422.3575 418.2925 416.2600
Pd 422.3575 416.2600 418.2925
Pd 420.3250 418.2925 418.2925
Pd 420.3250 420.3250 416.2600
Pd 422.3575 422.3575 416.2600
Pd 422.3575 420.3250 418.2925
Pd 420.3250 422.3575 418.2925
Pd 420.3250 424.3900 416.2600
Pd 422.3575 426.4225 416.2600
Pd 422.3575 424.3900 418.2925
Pd 420.3250 426.4225 418.2925
Pd 420.3250 428.4550 416.2600
Pd 422.3575 430.4875 416.2600
Pd 422.3575 428.4550 418.2925
Pd 420.3250 430.4875 418.2925
Pd 420.3250 432.5200 416.2600
Pd 422.3575 434.5525 416.2600
Pd 422.3575 432.5200 418.2925
Pd 420.3250 434.5525 418.2925
Pd 422.3575 436.5850 418.2925
Pd 424.3900 410.1625 418.2925
Pd 424.3900 412.1950 416.2600
Pd 426.4225 414.2275 416.2600
Pd 426.4225 412.1950 418.2925
Pd 424.3900 414.2275 418.2925
Pd 424.3900 416.2600 416.2600
Pd 426.4225 418.2925 416.2600
Pd 426.4225 416.2600 418.2925
Pd 424.3900 418.2925 418.2925
Pd 424.3900 420.3250 416.2600
Pd 426.4225 422.3575 416.2600
Pd 426.4225 420.3250 418.2925
Pd 424.3900 422.3575 418.2925
Pd 424.3900 424.3900 416.2600
Pd 426.4225 426.4225 416.2600
Pd 426.4225 424.3900 418.2925
Pd 424.3900 426.4225 418.2925
Pd 424.3900 428.4550 416.2600
Pd 426.4225 430.4875 416.2600
Pd 426.4225 428.4550 418.2925
Pd 424.3900 430.4875 418.2925
Pd 424.3900 432.5200 416.2600
Pd 426.4225 434.5525 416.2600
Pd 426.4225 432.5200 418.2925
Pd 424.3900 434.5525 418.2925
Pd 424.3900 436.5850 416.2600
Pd 428.4550 414.2275 418.2925
Pd 428.4550 416.2600 416.2600
Pd 430.4875 418.2925 416.2600
Pd 430.4875 416.2600 418.2925
Pd 428.4550 418.2925 418.2925
Pd 428.4550 420.3250 416.2600
Pd 430.4875 422.3575 416.2600
Pd 430.4875 420.3250 418.2925
Pd 428.4550 422.3575 418.2925
Pd 428.4550 424.3900 416.2600
Pd 430.4875 426.4225 416.2600
Pd 430.4875 424.3900 418.2925
Pd 428.4550 426.4225 418.2925
Pd 428.4550 428.4550 416.2600
Pd 430.4875 430.4875 416.2600
Pd 430.4875 428.4550 418.2925
Pd 428.4550 430.4875 418.2925
Pd 428.4550 432.5200 416.2600
Pd 432.5200 418.2925 418.2925
Pd 432.5200 420.3250 416.2600
Pd 434.5525 422.3575 416.2600
Pd 434.5525 420.3250 418.2925
Pd 432.5200 422.3575 418.2925
Pd 432.5200 424.3900 416.2600
Pd 434.5525 426.4225 416.2600
Pd 434.5525 424.3900 418.2925
Pd 432.5200 426.4225 418.2925
Pd 432.5200 428.4550 416.2600
Pd 436.5850 422.3575 418.2925
Pd 436.5850 424.3900 416.2600
Pd 406.0975 418.2925 420.3250
Pd 404.0650 420.3250 420.3250
Pd 406.0975 422.3575 420.3250
Pd 406.0975 420.3250 422.3575
Pd 404.0650 422.3575 422.3575
Pd 406.0975 424.3900 422.3575
Pd 410.1625 414.2275 420.3250
Pd 408.1300 416.2600 420.3250
Pd 410.1625 418.2925 420.3250
Pd 410.1625 416.2600 422.3575
Pd 408.1300 418.2925 422.3575
Pd 408.1300 420.3250 420.3250
Pd 410.1625 422.3575 420.3250
Pd 410.1625 420.3250 422.3575
Pd 408.1300 422.3575 422.3575
Pd 408.1300 424.3900 420.3250
Pd 410.1625 426.4225 420.3250
Pd 410.1625 424.3900 422.3575
Pd 408.1300 426.4225 422.3575
Pd 410.1625 428.4550 422.3575
Pd 414.2275 410.1625 420.3250
Pd 412.1950 412.1950 420.3250
Pd 414.2275 414.2275 420.3250
Pd 414.2275 412.1950 422.3575
Pd 412.1950 414.2275 422.3575
Pd 412.1950 416.2600 420.3250
Pd 414.2275 418.2925 420.3250
Pd 414.2275 416.2600 422.3575
Pd 412.1950 418.2925 422.3575
Pd 412.1950 420.3250 420.3250
Pd 414.2275 422.3575 420.3250
Pd 414.2275 420.3250 422.3575
Pd 412.1950 422.3575 422.3575
Pd 412.1950 424.3900 420.3250
Pd 414.2275 426.4225 420.3250
Pd 414.2275 424.3900 422.3575
Pd 412.1950 426.4225 422.3575
Pd 412.1950 428.4550 420.3250
Pd 414.2275 430.4875 420.3250
Pd 414.2275 428.4550 422.3575
Pd 412.1950 430.4875 422.3575
Pd 414.2275 432.5200 422.3575
Pd 418.2925 406.0975 420.3250
Pd 416.2600 408.1300 420.3250
Pd 418.2925 410.1625 420.3250
Pd 418.2925 408.1300 422.3575
Pd 416.2600 410.1625 422.3575
Pd 416.2600 412.1950 420.3250
Pd 418.2925 414.2275 420.3250
Pd 418.2925 412.1950 422.3575
Pd 416.2600 414.2275 422.3575
Pd 416.2600 416.2600 420.3250
Pd 418.2925 418.2925 420.3250
Pd 418.2925 416.2600 422.3575
Pd 416.2600 418.2925 422.3575
Pd 416.2600 420.3250 420.3250
Pd 418.2925 422.3575 420.3250
Pd 418.2925 420.3250 422.3575
Pd 416.2600 422.3575 422.3575
Pd 416.2600 424.3900 420.3250
Pd 418.2925 426.4225 420.3250
Pd 418.2925 424.3900 422.3575
Pd 416.2600 426.4225 422.3575
Pd 416.2600 428.4550 420.3250
Pd 418.2925 430.4875 420.3250
Pd 418.2925 428.4550 422.3575
Pd 416.2600 430.4875 422.3575
Pd 416.2600 432.5200 420.3250
Pd 418.2925 434.5525 420.3250
Pd 418.2925 432.5200 422.3575
Pd 416.2600 434.5525 422.3575
Pd 418.2925 436.5850 422.3575
Pd 420.3250 404.0650 420.3250
Pd 422.3575 406.0975 420.3250
Pd 422.3575 404.0650 422.3575
Pd 420.3250 406.0975 422.3575
Pd 420.3250 408.1300 420.3250
Pd 422.3575 410.1625 420.3250
Pd 422.3575 408.1300 422.3575
Pd 420.3250 410.1625 422.3575
Pd 420.3250 412.1950 420.3250
Pd 422.3575 414.2275 420.3250
Pd 422.3575 412.1950 422.3575
Pd 420.3250 414.2275 422.3575
Pd 420.3250 416.2600 420.3250
Pd 422.3575 418.2925 420.3250
Pd 422.3575 416.2600 422.3575
Pd 420.3250 418.2925 422.3575
Pd 420.3250 420.3250 420.3250
Pd 422.3575 422.3575 420.3250
Pd 422.3575 420.3250 422.3575
Pd 420.3250 422.3575 422.3575
Pd 420.3250 424.3900 420.3250
Pd 422.3575 426.4225 420.3250
Pd 422.3575 424.3900 422.3575
Pd 420.3250 426.4225 422.3575
Pd 420.3250 428.4550 420.3250
Pd 422.3575 430.4875 420.3250
Pd 422.3575 428.4550 422.3575
Pd 420.3250 430.4875 422.3575
Pd 420.3250 432.5200 420.3250
Pd 422.3575 434.5525 420.3250
Pd 422.3575 432.5200 422.3575
Pd 420.3250 434.5525 422.3575
Pd 420.3250 436.5850 420.3250
Pd 424.3900 406.0975 422.3575
Pd 424.3900 408.1300 420.3250
Pd 426.4225 410.1625 420.3250
Pd 426.4225 408.1300 422.3575
Pd 424.3900 410.1625 422.3575
Pd 424.3900 412.1950 420.3250
Pd 426.4225 414.2275 420.3250
Pd 426.4225 412.1950 422.3575
Pd 424.3900 414.2275 422.3575
Pd 424.3900 416.2600 420.3250
Pd 426.4225 418.2925 420.3250
Pd 426.4225 416.2600 422.3575
Pd 424.3900 418.2925 422.3575
Pd 424.3900 420.3250 420.3250
Pd 426.4225 422.3575 420.3250
Pd 426.4225 420.3250 422.3575
Pd 424.3900 422.3575 422.3575
Pd 424.3900 424.3900 420.3250
Pd 426.4225 426.4225 420.3250
Pd 426.4225 424.3900 422.3575
Pd 424.3900 426.4225 422.3575
Pd 424.3900 428.4550 420.3250
Pd 426.4225 430.4875 420.3250
Pd 426.4225 428.4550 422.3575
Pd 424.3900 430.4875 422.3575
Pd 424.3900 432.5200 420.3250
Pd 428.4550 410.1625 422.3575
Pd 428.4550 412.1950 420.3250
Pd 430.4875 414.2275 420.3250
Pd 430.4875 412.1950 422.3575
Pd 428.4550 414.2275 422.3575
Pd 428.4550 416.2600 420.3250
Pd 430.4875 418.2925 420.3250
Pd 430.4875 416.2600 422.3575
Pd 428.4550 418.2925 422.3575
Pd 428.4550 420.3250 420.3250
Pd 430.4875 422.3575 420.3250
Pd 430.4875 420.3250 422.3575
Pd 428.4550 422.3575 422.3575
Pd 428.4550 424.3900 420.3250
Pd 430.4875 426.4225 420.3250
Pd 430.4875 424.3900 422.3575
Pd 428.4550 426.4225 422.3575
Pd 428.4550 428.4550 420.3250
Pd 432.5200 414.2275 422.3575
Pd 432.5200 416.2600 420.3250
Pd 434.5525 418.2925 420.3250
Pd 434.5525 416.2600 422.3575
Pd 432.5200 418.2925 422.3575
Pd 432.5200 420.3250 420.3250
Pd 434.5525 422.3575 420.3250
Pd 434.5525 420.3250 422.3575
Pd 432.5200 422.3575 422.3575
Pd 432.5200 424.3900 420.3250
Pd 436.5850 418.2925 422.3575
Pd 436.5850 420.3250 420.3250
Pd 406.0975 422.3575 424.3900
Pd 404.0650 424.3900 424.3900
Pd 406.0975 426.4225 424.3900
Pd 406.0975 424.3900 426.4225
Pd 404.0650 426.4225 426.4225
Pd 406.0975 428.4550 426.4225
Pd 410.1625 418.2925 424.3900
Pd 408.1300 420.3250 424.3900
Pd 410.1625 422.3575 424.3900
Pd 410.1625 420.3250 426.4225
Pd 408.1300 422.3575 426.4225
Pd 408.1300 424.3900 424.3900
Pd 410.1625 426.4225 424.3900
Pd 410.1625 424.3900 426.4225
Pd 408.1300 426.4225 426.4225
Pd 408.1300 428.4550 424.3900
Pd 410.1625 430.4875 424.3900
Pd 410.1625 428.4550 426.4225
Pd 408.1300 430.4875 426.4225
Pd 410.1625 432.5200 426.4225
Pd 414.2275 414.2275 424.3900
Pd 412.1950 416.2600 424.3900
Pd 414.2275 418.2925 424.3900
Pd 414.2275 416.2600 426.4225
Pd 412.1950 418.2925 426.4225
Pd 412.1950 420.3250 424.3900
Pd 414.2275 422.3575 424.3900
Pd 414.2275 420.3250 426.4225
Pd 412.1950 422.3575 426.4225
Pd 412.1950 424.3900 424.3900
Pd 414.2275 426.4225 424.3900
Pd 414.2275 424.3900 426.4225
Pd 412.1950 426.4225 426.4225
Pd 412.1950 428.4550 424.3900
Pd 414.2275 430.4875 424.3900
Pd 414.2275 428.4550 426.4225
Pd 412.1950 430.4875 426.4225
Pd 412.1950 432.5200 424.3900
Pd 414.2275 434.5525 424.3900
Pd 414.2275 432.5200 426.4225
Pd 412.1950 434.5525 426.4225
Pd 414.2275 436.5850 426.4225
Pd 418.2925 410.1625 424.3900
Pd 416.2600 412.1950 424.3900
Pd 418.2925 414.2275 424.3900
Pd 418.2925 412.1950 426.4225
Pd 416.2600 414.2275 426.4225
Pd 416.2600 416.2600 424.3900
Pd 418.2925 418.2925 424.3900
Pd 418.2925 416.2600 426.4225
Pd 416.2600 418.2925 426.4225
Pd 416.2600 420.3250 424.3900
Pd 418.2925 422.3575 424.3900
Pd 418.2925 420.3250 426.4225
Pd 416.2600 422.3575 426.4225
Pd 416.2600 424.3900 424.3900
Pd 418.2925 426.4225 424.3900
Pd 418.2925 424.3900 426.4225
Pd 416.2600 426.4225 426.4225
Pd 416.2600 428.4550 424.3900
Pd 418.2925 430.4875 424.3900
Pd 418.2925 428.4550 426.4225
Pd 416.2600 430.4875 426.4225
Pd 416.2600 432.5200 424.3900
Pd 418.2925 434.5525 424.3900
Pd 418.2925 432.5200 426.4225
Pd 416.2600 434.5525 426.4225
Pd 416.2600 436.5850 424.3900
Pd 422.3575 406.0975 424.3900
Pd 420.3250 408.1300 424.3900
Pd 422.3575 410.1625 424.3900
Pd 422.3575 408.1300 426.4225
Pd 420.3250 410.1625 426.4225
Pd 420.3250 412.1950 424.3900
Pd 422.3575 414.2275 424.3900
Pd 422.3575 412.1950 426.4225
Pd 420.3250 414.2275 426.4225
Pd 420.3250 416.2600 424.3900
Pd 422.3575 418.2925 424.3900
Pd 422.3575 416.2600 426.4225
Pd 420.3250 418.2925 426.4225
Pd 420.3250 420.3250 424.3900
Pd 422.3575 422.3575 424.3900
Pd 422.3575 420.3250 426.4225
Pd 420.3250 422.3575 426.4225
Pd 420.3250 424.3900 424.3900
Pd 422.3575 426.4225 424.3900
Pd 422.3575 424.3900 426.4225
Pd 420.3250 426.4225 426.4225
Pd 420.3250 428.4550 424.3900
Pd 422.3575 430.4875 424.3900
Pd 422.3575 428.4550 426.4225
Pd 420.3250 430.4875 426.4225
Pd 420.3250 432.5200 424.3900
Pd 424.3900 404.0650 424.3900
Pd 426.4225 406.0975 424.3900
Pd 426.4225 404.0650 426.4225
Pd 424.3900 406.0975 426.4225
Pd 424.3900 408.1300 424.3900
Pd 426.4225 410.1625 424.3900
Pd 426.4225 408.1300 426.4225
Pd 424.3900 410.1625 426.4225
Pd 424.3900 412.1950 424.3900
Pd 426.4225 414.2275 424.3900
Pd 426.4225 412.1950 426.4225
Pd 424.3900 414.2275 426.4225
Pd 424.3900 416.2600 424.3900
Pd 426.4225 418.2925 424.3900
Pd 426.4225 416.2600 426.4225
Pd 424.3900 418.2925 426.4225
Pd 424.3900 420.3250 424.3900
Pd 426.4225 422.3575 424.3900
Pd 426.4225 420.3250 426.4225
Pd 424.3900 422.3575 426.4225
Pd 424.3900 424.3900 424.3900
Pd 426.4225 426.4225 424.3900
Pd 426.4225 424.3900 426.4225
Pd 424.3900 426.4225 426.4225
Pd 424.3900 428.4550 424.3900
Pd 428.4550 406.0975 426.4225
Pd 428.4550 408.1300 424.3900
Pd 430.4875 410.1625 424.3900
Pd 430.4875 408.1300 426.4225
Pd 428.4550 410.1625 426.4225
Pd 428.4550 412.1950 424.3900
Pd 430.4875 414.2275 424.3900
Pd 430.4875 412.1950 426.4225
Pd 428.4550 414.2275 426.4225
Pd 428.4550 416.2600 424.3900
Pd 430.4875 418.2925 424.3900
Pd 430.4875 416.2600 426.4225
Pd 428.4550 418.2925 426.4225
Pd 428.4550 420.3250 424.3900
Pd 430.4875 422.3575 424.3900
Pd 430.4875 420.3250 426.4225
Pd 428.4550 422.3575 426.4225
Pd 428.4550 424.3900 424.3900
Pd 432.5200 410.1625 426.4225
Pd 432.5200 412.1950 424.3900
Pd 434.5525 414.2275 424.3900
Pd 434.5525 412.1950 426.4225
Pd 432.5200 414.2275 426.4225
Pd 432.5200 416.2600 424.3900
Pd 434.5525 418.2925 424.3900
Pd 434.5525 416.2600 426.4225
Pd 432.5200 418.2925 426.4225
Pd 432.5200 420.3250 424.3900
Pd 436.5850 414.2275 426.4225
Pd 436.5850 416.2600 424.3900
Pd 406.0975 426.4225 428.4550
Pd 404.0650 428.4550 428.4550
Pd 406.0975 430.4875 428.4550
Pd 406.0975 428.4550 430.4875
Pd 404.0650 430.4875 430.4875
Pd 406.0975 432.5200 430.4875
Pd 410.1625 422.3575 428.4550
Pd 408.1300 424.3900 428.4550
Pd 410.1625 426.4225 428.4550
Pd 410.1625 424.3900 430.4875
Pd 408.1300 426.4225 430.4875
Pd 408.1300 428.4550 428.4550
Pd 410.1625 430.4875 428.4550
Pd 410.1625 428.4550 430.4875
Pd 408.1300 430.4875 430.4875
Pd 408.1300 432.5200 428.4550
Pd 410.1625 434.5525 428.4550
Pd 410.1625 432.5200 430.4875
Pd 408.1300 434.5525 430.4875
Pd 410.1625 436.5850 430.4875
Pd 414.2275 418.2925 428.4550
Pd 412.1950 420.3250 428.4550
Pd 414.2275 422.3575 428.4550
Pd 414.2275 420.3250 430.4875
Pd 412.1950 422.3575 430.4875
Pd 412.1950 424.3900 428.4550
Pd 414.2275 426.4225 428.4550
Pd 414.2275 424.3900 430.4875
Pd 412.1950 426.4225 430.4875
Pd 412.1950 428.4550 428.4550
Pd 414.2275 430.4875 428.4550
Pd 414.2275 428.4550 430.4875
Pd 412.1950 430.4875 430.4875
Pd 412.1950 432.5200 428.4550
Pd 414.2275 434.5525 428.4550
Pd 414.2275 432.5200 430.4875
Pd 412.1950 434.5525 430.4875
Pd 412.1950 436.5850 428.4550
Pd 418.2925 414.2275 428.4550
Pd 416.2600 416.2600 428.4550
Pd 418.2925 418.2925 428.4550
Pd 418.2925 416.2600 430.4875
Pd 416.2600 418.2925 430.4875
Pd 416.2600 420.3250 428.4550
Pd 418.2925 422.3575 428.4550
Pd 418.2925 420.3250 430.4875
Pd 416.2600 422.3575 430.4875
Pd 416.2600 424.3900 428.4550
Pd 418.2925 426.4225 428.4550
Pd 418.2925 424.3900 430.4875
Pd 416.2600 426.4225 430.4875
Pd 416.2600 428.4550 428.4550
Pd 418.2925 430.4875 428.4550
Pd 418.2925 428.4550 430.4875
Pd 416.2600 430.4875 430.4875
Pd 416.2600 432.5200 428.4550
Pd 422.3575 410.1625 428.4550
Pd 420.3250 412.1950 428.4550
Pd 422.3575 414.2275 428.4550
Pd 422.3575 412.1950 430.4875
Pd 420.3250 414.2275 430.4875
Pd 420.3250 416.2600 428.4550
Pd 422.3575 418.2925 428.4550
Pd 422.3575 416.2600 430.4875
Pd 420.3250 418.2925 430.4875
Pd 420.3250 420.3250 428.4550
Pd 422.3575 422.3575 428.4550
Pd 422.3575 420.3250 430.4875
Pd 420.3250 422.3575 430.4875
Pd 420.3250 424.3900 428.4550
Pd 422.3575 426.4225 428.4550
Pd 422.3575 424.3900 430.4875
Pd 420.3250 426.4225 430.4875
Pd 420.3250 428.4550 428.4550
Pd 426.4225 406.0975 428.4550
Pd 424.3900 408.1300 428.4550
Pd 426.4225 410.1625 428.4550
Pd 426.4225 408.1300 430.4875
Pd 424.3900 410.1625 430.4875
Pd 424.3900 412.1950 428.4550
Pd 426.4225 414.2275 428.4550
Pd 426.4225 412.1950 430.4875
Pd 424.3900 414.2275 430.4875
Pd 424.3900 416.2600 428.4550
Pd 426.4225 418.2925 428.4550
Pd 426.4225 416.2600 430.4875
Pd 424.3900 418.2925 430.4875
Pd 424.3900 420.3250 428.4550
Pd 426.4225 422.3575 428.4550
Pd 426.4225 420.3250 430.4875
Pd 424.3900 422.3575 430.4875
Pd 424.3900 424.3900 428.4550
Pd 428.4550 404.0650 428.4550
Pd 430.4875 406.0975 428.4550
Pd 430.4875 404.0650 430.4875
Pd 428.4550 406.0975 430.4875
Pd 428.4550 408.1300 428.4550
Pd 430.4875 410.1625 428.4550
Pd 430.4875 408.1300 430.4875
Pd 428.4550 410.1625 430.4875
Pd 428.4550 412.1950 428.4550
Pd 430.4875 414.2275 428.4550
Pd 430.4875 412.1950 430.4875
Pd 428.4550 414.2275 430.4875
Pd 428.4550 416.2600 428.4550
Pd 430.4875 418.2925 428.4550
Pd 430.4875 416.2600 430.4875
Pd 428.4550 418.2925 430.4875
Pd 428.4550 420.3250 428.4550
Pd 432.5200 406.0975 430.4875
Pd 432.5200 408.1300 428.4550
Pd 434.5525 410.1625 428.4550
Pd 434.5525 408.1300 430.4875
Pd 432.5200 410.1625 430.4875
Pd 432.5200 412.1950 428.4550
Pd 434.5525 414.2275 428.4550
Pd 434.5525 412.1950 430.4875
Pd 432.5200 414.2275 430.4875
Pd 432.5200 416.2600 428.4550
Pd 436.5850 410.1625 430.4875
Pd 436.5850 412.1950 428.4550
Pd 406.0975 430.4875 432.5200
Pd 404.0650 432.5200 432.5200
Pd 406.0975 434.5525 432.5200
Pd 406.0975 432.5200 434.5525
Pd 404.0650 434.5525 434.5525
Pd 406.0975 436.5850 434.5525
Pd 410.1625 426.4225 432.5200
Pd 408.1300 428.4550 432.5200
Pd 410.1625 430.4875 432.5200
Pd 410.1625 428.4550 434.5525
Pd 408.1300 430.4875 434.5525
Pd 408.1300 432.5200 432.5200
Pd 410.1625 434.5525 432.5200
Pd 410.1625 432.5200 434.5525
Pd 408.1300 434.5525 434.5525
Pd 408.1300 436.5850 432.5200
Pd 414.2275 422.3575 432.5200
Pd 412.1950 424.3900 432.5200
Pd 414.2275 426.4225 432.5200
Pd 414.2275 424.3900 434.5525
Pd 412.1950 426.4225 434.5525
Pd 412.1950 428.4550 432.5200
Pd 414.2275 430.4875 432.5200
Pd 414.2275 428.4550 434.5525
Pd 412.1950 430.4875 434.5525
Pd 412.1950 432.5200 432.5200
Pd 418.2925 418.2925 432.5200
Pd 416.2600 420.3250 432.5200
Pd 418.2925 422.3575 432.5200
Pd 418.2925 420.3250 434.5525
Pd 416.2600 422.3575 434.5525
Pd 416.2600 424.3900 432.5200
Pd 418.2925 426.4225 432.5200
Pd 418.2925 424.3900 434.5525
Pd 416.2600 426.4225 434.5525
Pd 416.2600 428.4550 432.5200
Pd 422.3575 414.2275 432.5200
Pd 420.3250 416.2600 432.5200
Pd 422.3575 418.2925 432.5200
Pd 422.3575 416.2600 434.5525
Pd 420.3250 418.2925 434.5525
Pd 420.3250 420.3250 432.5200
Pd 422.3575 422.3575 432.5200
Pd 422.3575 420.3250 434.5525
Pd 420.3250 422.3575 434.5525
Pd 420.3250 424.3900 432.5200
Pd 426.4225 410.1625 432.5200
Pd 424.3900 412.1950 432.5200
Pd 426.4225 414.2275 432.5200
Pd 426.4225 412.1950 434.5525
Pd 424.3900 414.2275 434.5525
Pd 424.3900 416.2600 432.5200
Pd 426.4225 418.2925 432.5200
Pd 426.4225 416.2600 434.5525
Pd 424.3900 418.2925 434.5525
Pd 424.3900 420.3250 432.5200
Pd 430.4875 406.0975 432.5200
Pd 428.4550 408.1300 432.5200
Pd 430.4875 410.1625 432.5200
Pd 430.4875 408.1300 434.5525
Pd 428.4550 410.1625 434.5525
Pd 428.4550 412.1950 432.5200
Pd 430.4875 414.2275 432.5200
Pd 430.4875 412.1950 434.5525
Pd 428.4550 414.2275 434.5525
Pd 428.4550 416.2600 432.5200
Pd 432.5200 404.0650 432.5200
Pd 434.5525 406.0975 432.5200
Pd 434.5525 404.0650 434.5525
Pd 432.5200 406.0975 434.5525
Pd 432.5200 408.1300 432.5200
Pd 434.5525 410.1625 432.5200
Pd 434.5525 408.1300 434.5525
Pd 432.5200 410.1625 434.5525
Pd 432.5200 412.1950 432.5200
Pd 436.5850 406.0975 434.5525
Pd 436.5850 408.1300 432.5200
Pd 406.0975 434.5525 436.5850
Pd 404.0650 436.5850 436.5850
Pd 410.1625 430.4875 436.5850
Pd 408.1300 432.5200 436.5850
Pd 414.2275 426.4225 436.5850
Pd 412.1950 428.4550 436.5850
Pd 418.2925 422.3575 436.5850
Pd 416.2600 424.3900 436.5850
Pd 422.3575 418.2925 436.5850
Pd 420.3250 420.3250 436.5850
Pd 426.4225 414.2275 436.5850
Pd 424.3900 416.2600 436.5850
Pd 430.4875 410.1625 436.5850
Pd 428.4550 412.1950 436.5850
Pd 434.5525 406.0975 436.5850
Pd 432.5200 408.1300 436.5850
Pd 436.5850 404.0650 436.5850
