20

H -4.416000000000000 0.438000000000000 -0.143000000000000
O -3.914000000000000 -0.392000000000000 -0.078000000000000
C -2.575000000000000 -0.106000000000000 -0.027000000000000
C -1.683000000000000 -1.178000000000000 0.081000000000000
H -2.076000000000000 -2.189000000000000 0.129000000000000
C -0.307000000000000 -0.958000000000000 0.128000000000000
H 0.377000000000000 -1.791000000000000 0.207000000000000
C 0.200000000000000 0.350000000000000 0.058000000000000
C -0.701000000000000 1.421000000000000 -0.032000000000000
H -0.327000000000000 2.442000000000000 -0.074000000000000
C -2.076000000000000 1.200000000000000 -0.077000000000000
H -2.758000000000000 2.043000000000000 -0.151000000000000
N 1.582000000000000 0.661000000000000 0.059000000000000
H 1.794000000000000 1.651000000000000 0.012000000000000
C 2.661000000000000 -0.181000000000000 0.058000000000000
O 2.574000000000000 -1.410000000000000 0.098000000000000
C 4.007000000000000 0.523000000000000 0.034000000000000
H 4.380000000000000 0.635000000000000 1.059000000000000
H 3.965000000000000 1.515000000000000 -0.426000000000000
H 4.716000000000000 -0.099000000000000 -0.517000000000000
