43

Pd     16.109999999999999     18.055000000000000     18.055000000000000
Pd     18.055000000000000     16.109999999999999     18.055000000000000
Pd     18.055000000000000     18.055000000000000     16.109999999999999
Pd     16.109999999999999     18.055000000000000     21.945000000000000
Pd     18.055000000000000     16.109999999999999     21.945000000000000
Pd     18.055000000000000     18.055000000000000     20.000000000000000
Pd     18.055000000000000     18.055000000000000     23.890000000000001
Pd     16.109999999999999     21.945000000000000     18.055000000000000
Pd     18.055000000000000     20.000000000000000     18.055000000000000
Pd     18.055000000000000     21.945000000000000     16.109999999999999
Pd     16.109999999999999     20.000000000000000     20.000000000000000
Pd     16.109999999999999     21.945000000000000     21.945000000000000
Pd     18.055000000000000     20.000000000000000     21.945000000000000
Pd     18.055000000000000     21.945000000000000     20.000000000000000
Pd     18.055000000000000     21.945000000000000     23.890000000000001
Pd     18.055000000000000     23.890000000000001     18.055000000000000
Pd     18.055000000000000     23.890000000000001     21.945000000000000
Pd     20.000000000000000     18.055000000000000     18.055000000000000
Pd     21.945000000000000     16.109999999999999     18.055000000000000
Pd     21.945000000000000     18.055000000000000     16.109999999999999
Pd     20.000000000000000     16.109999999999999     20.000000000000000
Pd     20.000000000000000     18.055000000000000     21.945000000000000
Pd     21.945000000000000     16.109999999999999     21.945000000000000
Pd     21.945000000000000     18.055000000000000     20.000000000000000
Pd     21.945000000000000     18.055000000000000     23.890000000000001
Pd     20.000000000000000     20.000000000000000     16.109999999999999
Pd     20.000000000000000     21.945000000000000     18.055000000000000
Pd     21.945000000000000     20.000000000000000     18.055000000000000
Pd     21.945000000000000     21.945000000000000     16.109999999999999
Pd     20.000000000000000     20.000000000000000     20.000000000000000
Pd     20.000000000000000     21.945000000000000     21.945000000000000
Pd     21.945000000000000     20.000000000000000     21.945000000000000
Pd     21.945000000000000     21.945000000000000     20.000000000000000
Pd     20.000000000000000     20.000000000000000     23.890000000000001
Pd     21.945000000000000     21.945000000000000     23.890000000000001
Pd     21.945000000000000     23.890000000000001     18.055000000000000
Pd     20.000000000000000     23.890000000000001     20.000000000000000
Pd     21.945000000000000     23.890000000000001     21.945000000000000
Pd     23.890000000000001     18.055000000000000     18.055000000000000
Pd     23.890000000000001     18.055000000000000     21.945000000000000
Pd     23.890000000000001     21.945000000000000     18.055000000000000
Pd     23.890000000000001     20.000000000000000     20.000000000000000
Pd     23.890000000000001     21.945000000000000     21.945000000000000
